version 2
run SinglePair-UDP-D2D-0-20180406-17:55:39-7031
attr configname SinglePair-UDP-D2D
attr datetime 20180406-17:55:39
attr experiment SinglePair-UDP-D2D
attr inifile omnetpp.ini
attr iterationvars ""
attr iterationvarsf ""
attr measurement ""
attr network Scenario
attr processid 7031
attr repetition 0
attr replication #0
attr resultdir results
attr runnumber 0
attr seedset 0
param **.**.amcMode "\"AUTO\""
param **.amcMode "\"D2D\""
param **.channelControl.alpha 1.0
param **.channelControl.carrierFrequency 2100e+6Hz
param **.channelControl.pMax 10W
param **.coreDebug false
param **.d2dCqi 7
param **.debug false
param **.deployer.numRbDl 50
param **.deployer.numRbUl 50
param **.fbDelay 1
param **.feedbackComputation "xmldoc(\"config_channel.xml\")"
param **.lteNic.phy.channelModel "xmldoc(\"config_channel.xml\")"
param **.numBands 50
param **.rbAllocationType "\"localized\""
param **.routingRecorder.enabled false
param **.usePreconfiguredTxParams false
param *.annotations.draw true
param *.eNodeB.d2dCapable false
param *.eNodeB.lteNic.phy.enableD2DCqiReporting true
param *.eNodeB.mobility.initFromDisplayString false
param *.eNodeB.mobility.initialX 300m
param *.eNodeB.mobility.initialY 300m
param *.manager.autoShutdown true
param *.manager.host "\"localhost\""
param *.manager.launchConfig "xmldoc(\"erlangen.launchd.xml\")"
param *.manager.port 9999
param *.manager.updateInterval 1s
param *.node*[*].numUdpApps 1
param *.node*[0].d2dCapable false
param *.node[*0].udpApp[*].localPort 1000
param *.node[*0].udpApp[*].typename "\"VoIPReceiver\""
param *.node[*0].veinsmobility.accidentCount 1
param *.node[*0].veinsmobility.accidentDuration 50s
param *.node[*0].veinsmobility.accidentStart 75s
param *.node[*1].udpApp[*].destAddress "\"node[0]\""
param *.node[*1].udpApp[*].destPort 1000
param *.node[*1].udpApp[*].localPort 3088+ancestorIndex(0)
param *.node[*1].udpApp[*].startTime uniform(0s,0.02s)
param *.node[*1].udpApp[*].typename "\"VoIPSender\""
param *.node[*].macCellId 1
param *.node[*].masterId 1
param *.node[*].mobility.initFromDisplayString false
param *.node[*].veinsmobility.x 0
param *.node[*].veinsmobility.y 0
param *.node[*].veinsmobility.z 1.895
param *.node[*].veinsmobilityType.debug true
param *.node[1].lteNic.d2dPeerAddresses "\"node[0]\""
param *.playgroundSizeX 2500m
param *.playgroundSizeY 2500m
param *.playgroundSizeZ 50m
param *node*[*].d2dCapable true

vector 8  Scenario.server.ppp[0].queue  queueLength:vector  ETV
attr interpolationmode  sample-hold
attr title  "queue length, vector"
vector 9  Scenario.server.ppp[0].ppp  txState:vector  ETV
attr interpolationmode  sample-hold
attr title  "tx state, vector"
vector 24  Scenario.router.ppp[0].queue  queueLength:vector  ETV
attr interpolationmode  sample-hold
attr title  "queue length, vector"
vector 25  Scenario.router.ppp[0].ppp  txState:vector  ETV
attr interpolationmode  sample-hold
attr title  "tx state, vector"
vector 35  Scenario.router.ppp[1].queue  queueLength:vector  ETV
attr interpolationmode  sample-hold
attr title  "queue length, vector"
vector 36  Scenario.router.ppp[1].ppp  txState:vector  ETV
attr interpolationmode  sample-hold
attr title  "tx state, vector"
vector 51  Scenario.pgw.ppp[0].queue  queueLength:vector  ETV
attr interpolationmode  sample-hold
attr title  "queue length, vector"
vector 52  Scenario.pgw.ppp[0].ppp  txState:vector  ETV
attr interpolationmode  sample-hold
attr title  "tx state, vector"
vector 62  Scenario.pgw.pppInterface.queue  queueLength:vector  ETV
attr interpolationmode  sample-hold
attr title  "queue length, vector"
vector 63  Scenario.pgw.pppInterface.ppp  txState:vector  ETV
attr interpolationmode  sample-hold
attr title  "tx state, vector"
vector 105  Scenario.eNodeB.pppIf.queue  queueLength:vector  ETV
attr interpolationmode  sample-hold
attr title  "queue length, vector"
vector 106  Scenario.eNodeB.pppIf.ppp  txState:vector  ETV
attr interpolationmode  sample-hold
attr title  "tx state, vector"
vector 153  Scenario.node[0].lteNic.phy  servingCell:vector  ETV
attr source  servingCell
attr title  "ID of the serving eNodeB for the UE, vector"
attr unit  ""
vector 158  Scenario.node[0].veinsmobility  posx  ETV
vector 159  Scenario.node[0].veinsmobility  posy  ETV
vector 196  Scenario.node[1].lteNic.phy  servingCell:vector  ETV
attr source  servingCell
attr title  "ID of the serving eNodeB for the UE, vector"
attr unit  ""
vector 202  Scenario.node[1].veinsmobility  posx  ETV
vector 203  Scenario.node[1].veinsmobility  posy  ETV
vector 164  Scenario.node[1].udp  sentPk:vector(packetBytes)  ETV
attr interpolationmode  none
attr source  sentPk
attr title  "packets sent, vector(packetBytes)"
vector 169  Scenario.node[1].lteNic.pdcpRrc  receivedPacketFromUpperLayer:vector(packetBytes)  ETV
attr interpolationmode  none
attr source  receivedPacketFromUpperLayer
vector 172  Scenario.node[1].lteNic.pdcpRrc  sentPacketToLowerLayer:vector(packetBytes)  ETV
attr interpolationmode  none
attr source  sentPacketToLowerLayer
vector 191  Scenario.node[1].lteNic.mac  receivedPacketFromUpperLayer:vector(packetBytes)  ETV
attr interpolationmode  none
attr source  receivedPacketFromUpperLayer
vector 194  Scenario.node[1].lteNic.mac  sentPacketToLowerLayer:vector(packetBytes)  ETV
attr interpolationmode  none
attr source  sentPacketToLowerLayer
vector 98  Scenario.eNodeB.lteNic.mac  receivedPacketFromLowerLayer:vector(packetBytes)  ETV
attr interpolationmode  none
attr source  receivedPacketFromLowerLayer
vector 100  Scenario.eNodeB.lteNic.mac  sentPacketToLowerLayer:vector(packetBytes)  ETV
attr interpolationmode  none
attr source  sentPacketToLowerLayer
vector 192  Scenario.node[1].lteNic.mac  receivedPacketFromLowerLayer:vector(packetBytes)  ETV
attr interpolationmode  none
attr source  receivedPacketFromLowerLayer
vector 160  Scenario.node[0].veinsmobility  speed  ETV
vector 204  Scenario.node[1].veinsmobility  speed  ETV
vector 161  Scenario.node[0].veinsmobility  acceleration  ETV
vector 162  Scenario.node[0].veinsmobility  co2emission  ETV
vector 205  Scenario.node[1].veinsmobility  acceleration  ETV
vector 206  Scenario.node[1].veinsmobility  co2emission  ETV
153	4017	2	1
162	17802	4	2.0286304753267
162	24578	5	2.0286304753267
162	31516	6	2.0286304753267
162	38099	7	2.0286304753267
162	44633	8	2.0286304753267
162	51268	9	2.0286304753267
162	58164	10	2.0286304753267
162	65098	11	2.0286304753267
162	72036	12	2.0286304753267
161	17802	4	0
161	24578	5	0
161	31516	6	0
161	38099	7	0
161	44633	8	0
161	51268	9	0
161	58164	10	0
161	65098	11	0
161	72036	12	0
160	10868	3	13.9
160	17802	4	13.9
160	24578	5	13.9
160	31516	6	13.9
160	38099	7	13.9
160	44633	8	13.9
160	51268	9	13.9
160	58164	10	13.9
160	65098	11	13.9
160	72036	12	13.9
159	4017	2	276.65
159	10868	3	276.65
159	17802	4	276.65
159	24578	5	276.65
159	31516	6	276.65
159	38099	7	276.65
159	44633	8	276.65
159	51268	9	276.65
159	58164	10	276.65
159	65098	11	276.65
159	72036	12	276.65
158	4017	2	31.6
158	10868	3	31.6
158	17802	4	44.54
158	24578	5	58.44
158	31516	6	72.34
158	38099	7	86.24
158	44633	8	100.14
158	51268	9	114.04
158	58164	10	127.94
158	65098	11	141.84
158	72036	12	155.74
164	4038	2.001171348151	48
164	4178	2.021171348151	48
164	4314	2.041171348151	48
164	4455	2.061171348151	48
164	4595	2.081171348151	48
164	4731	2.101171348151	48
164	4871	2.121171348151	48
164	5011	2.141171348151	48
164	5147	2.161171348151	48
164	5287	2.181171348151	48
164	5427	2.201171348151	48
164	5563	2.221171348151	48
164	5703	2.241171348151	48
164	5843	2.261171348151	48
164	5979	2.281171348151	48
164	6119	2.301171348151	48
164	6259	2.321171348151	48
164	7995	2.585248121191	48
164	8131	2.605248121191	48
164	8271	2.625248121191	48
164	8411	2.645248121191	48
164	8547	2.665248121191	48
164	8687	2.685248121191	48
164	8827	2.705248121191	48
164	8963	2.725248121191	48
164	9103	2.745248121191	48
164	9243	2.765248121191	48
164	9379	2.785248121191	48
164	9519	2.805248121191	48
164	9659	2.825248121191	48
164	9795	2.845248121191	48
164	9935	2.865248121191	48
164	10075	2.885248121191	48
164	10211	2.905248121191	48
164	10351	2.925248121191	48
164	10491	2.945248121191	48
164	10627	2.965248121191	48
164	10767	2.985248121191	48
164	10908	3.005248121191	48
164	11044	3.025248121191	48
164	11184	3.045248121191	48
164	11325	3.065248121191	48
164	11461	3.085248121191	48
164	11601	3.105248121191	48
164	11741	3.125248121191	48
164	11877	3.145248121191	48
164	12017	3.165248121191	48
164	12157	3.185248121191	48
164	12293	3.205248121191	48
164	12433	3.225248121191	48
164	12573	3.245248121191	48
164	12709	3.265248121191	48
164	12849	3.285248121191	48
164	12989	3.305248121191	48
164	13125	3.325248121191	48
164	13265	3.345248121191	48
164	13405	3.365248121191	48
164	13541	3.385248121191	48
164	13681	3.405248121191	48
164	13821	3.425248121191	48
164	13957	3.445248121191	48
164	14097	3.465248121191	48
164	14237	3.485248121191	48
164	14373	3.505248121191	48
164	14513	3.525248121191	48
164	14653	3.545248121191	48
164	14789	3.565248121191	48
164	14929	3.585248121191	48
164	15069	3.605248121191	48
164	15205	3.625248121191	48
164	15345	3.645248121191	48
164	15485	3.665248121191	48
164	15621	3.685248121191	48
164	15761	3.705248121191	48
164	15901	3.725248121191	48
164	16037	3.745248121191	48
164	16177	3.765248121191	48
164	16317	3.785248121191	48
164	16453	3.805248121191	48
164	16593	3.825248121191	48
164	16733	3.845248121191	48
164	16869	3.865248121191	48
164	17009	3.885248121191	48
164	17149	3.905248121191	48
164	17285	3.925248121191	48
164	17425	3.945248121191	48
164	17565	3.965248121191	48
164	17701	3.985248121191	48
164	17842	4.005248121191	48
164	17982	4.025248121191	48
164	18118	4.045248121191	48
164	18259	4.065248121191	48
164	18399	4.085248121191	48
164	18535	4.105248121191	48
164	18675	4.125248121191	48
164	18815	4.145248121191	48
164	18951	4.165248121191	48
164	19091	4.185248121191	48
164	19231	4.205248121191	48
164	19367	4.225248121191	48
164	19507	4.245248121191	48
164	22269	4.66640599363	48
164	22405	4.68640599363	48
164	22543	4.70640599363	48
164	22685	4.72640599363	48
164	22821	4.74640599363	48
164	22959	4.76640599363	48
164	23101	4.78640599363	48
164	23237	4.80640599363	48
164	23375	4.82640599363	48
164	23517	4.84640599363	48
164	23653	4.86640599363	48
164	23791	4.88640599363	48
164	23933	4.90640599363	48
164	24069	4.92640599363	48
164	24207	4.94640599363	48
164	24349	4.96640599363	48
164	24485	4.98640599363	48
164	24624	5.00640599363	48
164	24766	5.02640599363	48
164	24902	5.04640599363	48
164	25041	5.06640599363	48
164	25183	5.08640599363	48
164	25319	5.10640599363	48
164	25457	5.12640599363	48
164	25599	5.14640599363	48
164	25735	5.16640599363	48
164	25873	5.18640599363	48
164	26015	5.20640599363	48
164	26151	5.22640599363	48
164	26289	5.24640599363	48
164	26431	5.26640599363	48
164	26567	5.28640599363	48
164	26705	5.30640599363	48
164	26847	5.32640599363	48
164	26983	5.34640599363	48
164	27121	5.36640599363	48
164	27263	5.38640599363	48
164	27399	5.40640599363	48
164	27537	5.42640599363	48
164	27679	5.44640599363	48
164	27815	5.46640599363	48
164	27953	5.48640599363	48
164	28095	5.50640599363	48
164	28231	5.52640599363	48
164	28369	5.54640599363	48
164	28511	5.56640599363	48
164	28647	5.58640599363	48
164	28785	5.60640599363	48
164	28927	5.62640599363	48
164	29063	5.64640599363	48
164	29201	5.66640599363	48
164	29343	5.68640599363	48
164	29479	5.70640599363	48
164	29617	5.72640599363	48
164	29759	5.74640599363	48
164	29895	5.76640599363	48
164	30033	5.78640599363	48
164	30175	5.80640599363	48
164	30311	5.82640599363	48
164	30449	5.84640599363	48
164	30591	5.86640599363	48
164	30727	5.88640599363	48
164	30865	5.90640599363	48
164	31007	5.92640599363	48
164	31143	5.94640599363	48
164	31281	5.96640599363	48
164	31423	5.98640599363	48
164	31560	6.00640599363	48
164	31698	6.02640599363	48
164	31840	6.04640599363	48
164	31977	6.06640599363	48
164	32115	6.08640599363	48
164	32257	6.10640599363	48
164	49720	8.777591859979	48
164	49856	8.797591859979	48
164	49996	8.817591859979	48
164	50136	8.837591859979	48
164	50272	8.857591859979	48
164	50412	8.877591859979	48
164	50552	8.897591859979	48
164	50688	8.917591859979	48
164	50828	8.937591859979	48
164	50968	8.957591859979	48
164	51104	8.977591859979	48
164	51244	8.997591859979	48
164	51385	9.017591859979	48
164	52080	9.122899899328	48
164	52222	9.142899899328	48
164	52358	9.162899899328	48
164	52496	9.182899899328	48
164	52638	9.202899899328	48
164	52774	9.222899899328	48
164	52912	9.242899899328	48
164	53054	9.262899899328	48
164	53190	9.282899899328	48
164	53328	9.302899899328	48
164	53470	9.322899899328	48
164	53606	9.342899899328	48
164	53744	9.362899899328	48
164	53886	9.382899899328	48
164	54022	9.402899899328	48
164	54160	9.422899899328	48
164	54302	9.442899899328	48
164	54438	9.462899899328	48
164	54576	9.482899899328	48
164	54718	9.502899899328	48
164	54854	9.522899899328	48
164	54992	9.542899899328	48
164	55134	9.562899899328	48
164	55270	9.582899899328	48
164	55408	9.602899899328	48
164	55550	9.622899899328	48
164	55686	9.642899899328	48
164	55824	9.662899899328	48
164	55966	9.682899899328	48
164	56102	9.702899899328	48
164	56240	9.722899899328	48
164	56382	9.742899899328	48
164	56518	9.762899899328	48
164	56656	9.782899899328	48
164	56798	9.802899899328	48
164	56934	9.822899899328	48
164	57072	9.842899899328	48
164	57214	9.862899899328	48
164	57350	9.882899899328	48
164	57488	9.902899899328	48
164	57630	9.922899899328	48
164	57766	9.942899899328	48
164	57904	9.962899899328	48
164	58046	9.982899899328	48
164	58183	10.002899899328	48
164	58321	10.022899899328	48
164	58463	10.042899899328	48
164	58600	10.062899899328	48
164	58738	10.082899899328	48
164	58880	10.102899899328	48
164	59016	10.122899899328	48
164	59154	10.142899899328	48
164	59296	10.162899899328	48
164	59432	10.182899899328	48
164	59570	10.202899899328	48
164	59712	10.222899899328	48
164	59848	10.242899899328	48
164	59986	10.262899899328	48
164	60128	10.282899899328	48
164	60264	10.302899899328	48
164	60402	10.322899899328	48
164	60544	10.342899899328	48
164	60680	10.362899899328	48
164	60818	10.382899899328	48
164	60960	10.402899899328	48
164	61096	10.422899899328	48
164	61234	10.442899899328	48
164	61376	10.462899899328	48
164	61512	10.482899899328	48
164	61650	10.502899899328	48
164	61792	10.522899899328	48
164	61928	10.542899899328	48
164	62066	10.562899899328	48
164	62208	10.582899899328	48
164	62344	10.602899899328	48
164	62482	10.622899899328	48
164	62624	10.642899899328	48
164	62760	10.662899899328	48
164	62898	10.682899899328	48
164	63040	10.702899899328	48
164	63176	10.722899899328	48
164	63314	10.742899899328	48
164	63456	10.762899899328	48
164	63592	10.782899899328	48
164	63730	10.802899899328	48
164	63872	10.822899899328	48
164	64008	10.842899899328	48
164	64146	10.862899899328	48
164	64288	10.882899899328	48
164	64424	10.902899899328	48
164	64562	10.922899899328	48
164	64704	10.942899899328	48
164	64840	10.962899899328	48
164	64978	10.982899899328	48
164	65121	11.002899899328	48
164	65257	11.022899899328	48
164	65395	11.042899899328	48
164	65538	11.062899899328	48
164	65674	11.082899899328	48
164	65812	11.102899899328	48
164	65954	11.122899899328	48
164	66090	11.142899899328	48
164	66228	11.162899899328	48
164	66370	11.182899899328	48
164	66506	11.202899899328	48
164	66644	11.222899899328	48
164	66786	11.242899899328	48
164	66922	11.262899899328	48
164	67060	11.282899899328	48
164	67202	11.302899899328	48
164	67338	11.322899899328	48
164	67476	11.342899899328	48
164	67618	11.362899899328	48
164	67754	11.382899899328	48
164	67892	11.402899899328	48
164	68034	11.422899899328	48
164	68170	11.442899899328	48
164	68308	11.462899899328	48
164	68450	11.482899899328	48
164	68586	11.502899899328	48
164	68724	11.522899899328	48
164	68866	11.542899899328	48
164	69002	11.562899899328	48
164	69140	11.582899899328	48
164	69282	11.602899899328	48
164	69418	11.622899899328	48
164	69556	11.642899899328	48
164	69698	11.662899899328	48
164	69834	11.682899899328	48
164	69972	11.702899899328	48
164	70114	11.722899899328	48
164	70250	11.742899899328	48
164	70388	11.762899899328	48
164	70530	11.782899899328	48
164	70666	11.802899899328	48
164	70804	11.822899899328	48
164	70946	11.842899899328	48
164	71082	11.862899899328	48
164	71220	11.882899899328	48
164	71362	11.902899899328	48
164	71498	11.922899899328	48
164	71636	11.942899899328	48
164	71778	11.962899899328	48
164	71914	11.982899899328	48
164	72053	12.002899899328	48
164	72195	12.022899899328	48
164	72331	12.042899899328	48
164	72470	12.062899899328	48
164	72612	12.082899899328	48
164	72748	12.102899899328	48
164	72886	12.122899899328	48
164	73028	12.142899899328	48
164	73164	12.162899899328	48
164	74676	12.392698085521	48
164	74818	12.412698085521	48
164	76179	12.619873317006	48
164	76319	12.639873317006	48
164	76459	12.659873317006	48
164	76595	12.679873317006	48
164	76735	12.699873317006	48
164	76875	12.719873317006	48
164	77011	12.739873317006	48
164	77151	12.759873317006	48
164	77291	12.779873317006	48
164	77427	12.799873317006	48
164	77567	12.819873317006	48
172	4041	2.001171348151	69
172	4181	2.021171348151	69
172	4317	2.041171348151	69
172	4458	2.061171348151	69
172	4598	2.081171348151	69
172	4734	2.101171348151	69
172	4874	2.121171348151	69
172	5014	2.141171348151	69
172	5150	2.161171348151	69
172	5290	2.181171348151	69
172	5430	2.201171348151	69
172	5566	2.221171348151	69
172	5706	2.241171348151	69
172	5846	2.261171348151	69
172	5982	2.281171348151	69
172	6122	2.301171348151	69
172	6262	2.321171348151	69
172	7998	2.585248121191	69
172	8134	2.605248121191	69
172	8274	2.625248121191	69
172	8414	2.645248121191	69
172	8550	2.665248121191	69
172	8690	2.685248121191	69
172	8830	2.705248121191	69
172	8966	2.725248121191	69
172	9106	2.745248121191	69
172	9246	2.765248121191	69
172	9382	2.785248121191	69
172	9522	2.805248121191	69
172	9662	2.825248121191	69
172	9798	2.845248121191	69
172	9938	2.865248121191	69
172	10078	2.885248121191	69
172	10214	2.905248121191	69
172	10354	2.925248121191	69
172	10494	2.945248121191	69
172	10630	2.965248121191	69
172	10770	2.985248121191	69
172	10911	3.005248121191	69
172	11047	3.025248121191	69
172	11187	3.045248121191	69
172	11328	3.065248121191	69
172	11464	3.085248121191	69
172	11604	3.105248121191	69
172	11744	3.125248121191	69
172	11880	3.145248121191	69
172	12020	3.165248121191	69
172	12160	3.185248121191	69
172	12296	3.205248121191	69
172	12436	3.225248121191	69
172	12576	3.245248121191	69
172	12712	3.265248121191	69
172	12852	3.285248121191	69
172	12992	3.305248121191	69
172	13128	3.325248121191	69
172	13268	3.345248121191	69
172	13408	3.365248121191	69
172	13544	3.385248121191	69
172	13684	3.405248121191	69
172	13824	3.425248121191	69
172	13960	3.445248121191	69
172	14100	3.465248121191	69
172	14240	3.485248121191	69
172	14376	3.505248121191	69
172	14516	3.525248121191	69
172	14656	3.545248121191	69
172	14792	3.565248121191	69
172	14932	3.585248121191	69
172	15072	3.605248121191	69
172	15208	3.625248121191	69
172	15348	3.645248121191	69
172	15488	3.665248121191	69
172	15624	3.685248121191	69
172	15764	3.705248121191	69
172	15904	3.725248121191	69
172	16040	3.745248121191	69
172	16180	3.765248121191	69
172	16320	3.785248121191	69
172	16456	3.805248121191	69
172	16596	3.825248121191	69
172	16736	3.845248121191	69
172	16872	3.865248121191	69
172	17012	3.885248121191	69
172	17152	3.905248121191	69
172	17288	3.925248121191	69
172	17428	3.945248121191	69
172	17568	3.965248121191	69
172	17704	3.985248121191	69
172	17845	4.005248121191	69
172	17985	4.025248121191	69
172	18121	4.045248121191	69
172	18262	4.065248121191	69
172	18402	4.085248121191	69
172	18538	4.105248121191	69
172	18678	4.125248121191	69
172	18818	4.145248121191	69
172	18954	4.165248121191	69
172	19094	4.185248121191	69
172	19234	4.205248121191	69
172	19370	4.225248121191	69
172	19510	4.245248121191	69
172	22272	4.66640599363	69
172	22408	4.68640599363	69
172	22546	4.70640599363	69
172	22688	4.72640599363	69
172	22824	4.74640599363	69
172	22962	4.76640599363	69
172	23104	4.78640599363	69
172	23240	4.80640599363	69
172	23378	4.82640599363	69
172	23520	4.84640599363	69
172	23656	4.86640599363	69
172	23794	4.88640599363	69
172	23936	4.90640599363	69
172	24072	4.92640599363	69
172	24210	4.94640599363	69
172	24352	4.96640599363	69
172	24488	4.98640599363	69
172	24627	5.00640599363	69
172	24769	5.02640599363	69
172	24905	5.04640599363	69
172	25044	5.06640599363	69
172	25186	5.08640599363	69
172	25322	5.10640599363	69
172	25460	5.12640599363	69
172	25602	5.14640599363	69
172	25738	5.16640599363	69
172	25876	5.18640599363	69
172	26018	5.20640599363	69
172	26154	5.22640599363	69
172	26292	5.24640599363	69
172	26434	5.26640599363	69
172	26570	5.28640599363	69
172	26708	5.30640599363	69
172	26850	5.32640599363	69
172	26986	5.34640599363	69
172	27124	5.36640599363	69
172	27266	5.38640599363	69
172	27402	5.40640599363	69
172	27540	5.42640599363	69
172	27682	5.44640599363	69
172	27818	5.46640599363	69
172	27956	5.48640599363	69
172	28098	5.50640599363	69
172	28234	5.52640599363	69
172	28372	5.54640599363	69
172	28514	5.56640599363	69
172	28650	5.58640599363	69
172	28788	5.60640599363	69
172	28930	5.62640599363	69
172	29066	5.64640599363	69
172	29204	5.66640599363	69
172	29346	5.68640599363	69
172	29482	5.70640599363	69
172	29620	5.72640599363	69
172	29762	5.74640599363	69
172	29898	5.76640599363	69
172	30036	5.78640599363	69
172	30178	5.80640599363	69
172	30314	5.82640599363	69
172	30452	5.84640599363	69
172	30594	5.86640599363	69
172	30730	5.88640599363	69
172	30868	5.90640599363	69
172	31010	5.92640599363	69
172	31146	5.94640599363	69
172	31284	5.96640599363	69
172	31426	5.98640599363	69
172	31563	6.00640599363	69
172	31701	6.02640599363	69
172	31843	6.04640599363	69
172	31980	6.06640599363	69
172	32118	6.08640599363	69
172	32260	6.10640599363	69
172	49723	8.777591859979	69
172	49859	8.797591859979	69
172	49999	8.817591859979	69
172	50139	8.837591859979	69
172	50275	8.857591859979	69
172	50415	8.877591859979	69
172	50555	8.897591859979	69
172	50691	8.917591859979	69
172	50831	8.937591859979	69
172	50971	8.957591859979	69
172	51107	8.977591859979	69
172	51247	8.997591859979	69
172	51388	9.017591859979	69
172	52083	9.122899899328	69
172	52225	9.142899899328	69
172	52361	9.162899899328	69
172	52499	9.182899899328	69
172	52641	9.202899899328	69
172	52777	9.222899899328	69
172	52915	9.242899899328	69
172	53057	9.262899899328	69
172	53193	9.282899899328	69
172	53331	9.302899899328	69
172	53473	9.322899899328	69
172	53609	9.342899899328	69
172	53747	9.362899899328	69
172	53889	9.382899899328	69
172	54025	9.402899899328	69
172	54163	9.422899899328	69
172	54305	9.442899899328	69
172	54441	9.462899899328	69
172	54579	9.482899899328	69
172	54721	9.502899899328	69
172	54857	9.522899899328	69
172	54995	9.542899899328	69
172	55137	9.562899899328	69
172	55273	9.582899899328	69
172	55411	9.602899899328	69
172	55553	9.622899899328	69
172	55689	9.642899899328	69
172	55827	9.662899899328	69
172	55969	9.682899899328	69
172	56105	9.702899899328	69
172	56243	9.722899899328	69
172	56385	9.742899899328	69
172	56521	9.762899899328	69
172	56659	9.782899899328	69
172	56801	9.802899899328	69
172	56937	9.822899899328	69
172	57075	9.842899899328	69
172	57217	9.862899899328	69
172	57353	9.882899899328	69
172	57491	9.902899899328	69
172	57633	9.922899899328	69
172	57769	9.942899899328	69
172	57907	9.962899899328	69
172	58049	9.982899899328	69
172	58186	10.002899899328	69
172	58324	10.022899899328	69
172	58466	10.042899899328	69
172	58603	10.062899899328	69
172	58741	10.082899899328	69
172	58883	10.102899899328	69
172	59019	10.122899899328	69
172	59157	10.142899899328	69
172	59299	10.162899899328	69
172	59435	10.182899899328	69
172	59573	10.202899899328	69
172	59715	10.222899899328	69
172	59851	10.242899899328	69
172	59989	10.262899899328	69
172	60131	10.282899899328	69
172	60267	10.302899899328	69
172	60405	10.322899899328	69
172	60547	10.342899899328	69
172	60683	10.362899899328	69
172	60821	10.382899899328	69
172	60963	10.402899899328	69
172	61099	10.422899899328	69
172	61237	10.442899899328	69
172	61379	10.462899899328	69
172	61515	10.482899899328	69
172	61653	10.502899899328	69
172	61795	10.522899899328	69
172	61931	10.542899899328	69
172	62069	10.562899899328	69
172	62211	10.582899899328	69
172	62347	10.602899899328	69
172	62485	10.622899899328	69
172	62627	10.642899899328	69
172	62763	10.662899899328	69
172	62901	10.682899899328	69
172	63043	10.702899899328	69
172	63179	10.722899899328	69
172	63317	10.742899899328	69
172	63459	10.762899899328	69
172	63595	10.782899899328	69
172	63733	10.802899899328	69
172	63875	10.822899899328	69
172	64011	10.842899899328	69
172	64149	10.862899899328	69
172	64291	10.882899899328	69
172	64427	10.902899899328	69
172	64565	10.922899899328	69
172	64707	10.942899899328	69
172	64843	10.962899899328	69
172	64981	10.982899899328	69
172	65124	11.002899899328	69
172	65260	11.022899899328	69
172	65398	11.042899899328	69
172	65541	11.062899899328	69
172	65677	11.082899899328	69
172	65815	11.102899899328	69
172	65957	11.122899899328	69
172	66093	11.142899899328	69
172	66231	11.162899899328	69
172	66373	11.182899899328	69
172	66509	11.202899899328	69
172	66647	11.222899899328	69
172	66789	11.242899899328	69
172	66925	11.262899899328	69
172	67063	11.282899899328	69
172	67205	11.302899899328	69
172	67341	11.322899899328	69
172	67479	11.342899899328	69
172	67621	11.362899899328	69
172	67757	11.382899899328	69
172	67895	11.402899899328	69
172	68037	11.422899899328	69
172	68173	11.442899899328	69
172	68311	11.462899899328	69
172	68453	11.482899899328	69
172	68589	11.502899899328	69
172	68727	11.522899899328	69
172	68869	11.542899899328	69
172	69005	11.562899899328	69
172	69143	11.582899899328	69
172	69285	11.602899899328	69
172	69421	11.622899899328	69
172	69559	11.642899899328	69
172	69701	11.662899899328	69
172	69837	11.682899899328	69
172	69975	11.702899899328	69
172	70117	11.722899899328	69
172	70253	11.742899899328	69
172	70391	11.762899899328	69
172	70533	11.782899899328	69
172	70669	11.802899899328	69
172	70807	11.822899899328	69
172	70949	11.842899899328	69
172	71085	11.862899899328	69
172	71223	11.882899899328	69
172	71365	11.902899899328	69
172	71501	11.922899899328	69
172	71639	11.942899899328	69
172	71781	11.962899899328	69
172	71917	11.982899899328	69
172	72056	12.002899899328	69
172	72198	12.022899899328	69
172	72334	12.042899899328	69
172	72473	12.062899899328	69
172	72615	12.082899899328	69
172	72751	12.102899899328	69
172	72889	12.122899899328	69
172	73031	12.142899899328	69
172	73167	12.162899899328	69
172	74679	12.392698085521	69
172	74821	12.412698085521	69
172	76182	12.619873317006	69
172	76322	12.639873317006	69
172	76462	12.659873317006	69
172	76598	12.679873317006	69
172	76738	12.699873317006	69
172	76878	12.719873317006	69
172	77014	12.739873317006	69
172	77154	12.759873317006	69
172	77294	12.779873317006	69
172	77430	12.799873317006	69
172	77570	12.819873317006	69
169	4041	2.001171348151	68
169	4181	2.021171348151	68
169	4317	2.041171348151	68
169	4458	2.061171348151	68
169	4598	2.081171348151	68
169	4734	2.101171348151	68
169	4874	2.121171348151	68
169	5014	2.141171348151	68
169	5150	2.161171348151	68
169	5290	2.181171348151	68
169	5430	2.201171348151	68
169	5566	2.221171348151	68
169	5706	2.241171348151	68
169	5846	2.261171348151	68
169	5982	2.281171348151	68
169	6122	2.301171348151	68
169	6262	2.321171348151	68
169	7998	2.585248121191	68
169	8134	2.605248121191	68
169	8274	2.625248121191	68
169	8414	2.645248121191	68
169	8550	2.665248121191	68
169	8690	2.685248121191	68
169	8830	2.705248121191	68
169	8966	2.725248121191	68
169	9106	2.745248121191	68
169	9246	2.765248121191	68
169	9382	2.785248121191	68
169	9522	2.805248121191	68
169	9662	2.825248121191	68
169	9798	2.845248121191	68
169	9938	2.865248121191	68
169	10078	2.885248121191	68
169	10214	2.905248121191	68
169	10354	2.925248121191	68
169	10494	2.945248121191	68
169	10630	2.965248121191	68
169	10770	2.985248121191	68
169	10911	3.005248121191	68
169	11047	3.025248121191	68
169	11187	3.045248121191	68
169	11328	3.065248121191	68
169	11464	3.085248121191	68
169	11604	3.105248121191	68
169	11744	3.125248121191	68
169	11880	3.145248121191	68
169	12020	3.165248121191	68
169	12160	3.185248121191	68
169	12296	3.205248121191	68
169	12436	3.225248121191	68
169	12576	3.245248121191	68
169	12712	3.265248121191	68
169	12852	3.285248121191	68
169	12992	3.305248121191	68
169	13128	3.325248121191	68
169	13268	3.345248121191	68
169	13408	3.365248121191	68
169	13544	3.385248121191	68
169	13684	3.405248121191	68
169	13824	3.425248121191	68
169	13960	3.445248121191	68
169	14100	3.465248121191	68
169	14240	3.485248121191	68
169	14376	3.505248121191	68
169	14516	3.525248121191	68
169	14656	3.545248121191	68
169	14792	3.565248121191	68
169	14932	3.585248121191	68
169	15072	3.605248121191	68
169	15208	3.625248121191	68
169	15348	3.645248121191	68
169	15488	3.665248121191	68
169	15624	3.685248121191	68
169	15764	3.705248121191	68
169	15904	3.725248121191	68
169	16040	3.745248121191	68
169	16180	3.765248121191	68
169	16320	3.785248121191	68
169	16456	3.805248121191	68
169	16596	3.825248121191	68
169	16736	3.845248121191	68
169	16872	3.865248121191	68
169	17012	3.885248121191	68
169	17152	3.905248121191	68
169	17288	3.925248121191	68
169	17428	3.945248121191	68
169	17568	3.965248121191	68
169	17704	3.985248121191	68
169	17845	4.005248121191	68
169	17985	4.025248121191	68
169	18121	4.045248121191	68
169	18262	4.065248121191	68
169	18402	4.085248121191	68
169	18538	4.105248121191	68
169	18678	4.125248121191	68
169	18818	4.145248121191	68
169	18954	4.165248121191	68
169	19094	4.185248121191	68
169	19234	4.205248121191	68
169	19370	4.225248121191	68
169	19510	4.245248121191	68
169	22272	4.66640599363	68
169	22408	4.68640599363	68
169	22546	4.70640599363	68
169	22688	4.72640599363	68
169	22824	4.74640599363	68
169	22962	4.76640599363	68
169	23104	4.78640599363	68
169	23240	4.80640599363	68
169	23378	4.82640599363	68
169	23520	4.84640599363	68
169	23656	4.86640599363	68
169	23794	4.88640599363	68
169	23936	4.90640599363	68
169	24072	4.92640599363	68
169	24210	4.94640599363	68
169	24352	4.96640599363	68
169	24488	4.98640599363	68
169	24627	5.00640599363	68
169	24769	5.02640599363	68
169	24905	5.04640599363	68
169	25044	5.06640599363	68
169	25186	5.08640599363	68
169	25322	5.10640599363	68
169	25460	5.12640599363	68
169	25602	5.14640599363	68
169	25738	5.16640599363	68
169	25876	5.18640599363	68
169	26018	5.20640599363	68
169	26154	5.22640599363	68
169	26292	5.24640599363	68
169	26434	5.26640599363	68
169	26570	5.28640599363	68
169	26708	5.30640599363	68
169	26850	5.32640599363	68
169	26986	5.34640599363	68
169	27124	5.36640599363	68
169	27266	5.38640599363	68
169	27402	5.40640599363	68
169	27540	5.42640599363	68
169	27682	5.44640599363	68
169	27818	5.46640599363	68
169	27956	5.48640599363	68
169	28098	5.50640599363	68
169	28234	5.52640599363	68
169	28372	5.54640599363	68
169	28514	5.56640599363	68
169	28650	5.58640599363	68
169	28788	5.60640599363	68
169	28930	5.62640599363	68
169	29066	5.64640599363	68
169	29204	5.66640599363	68
169	29346	5.68640599363	68
169	29482	5.70640599363	68
169	29620	5.72640599363	68
169	29762	5.74640599363	68
169	29898	5.76640599363	68
169	30036	5.78640599363	68
169	30178	5.80640599363	68
169	30314	5.82640599363	68
169	30452	5.84640599363	68
169	30594	5.86640599363	68
169	30730	5.88640599363	68
169	30868	5.90640599363	68
169	31010	5.92640599363	68
169	31146	5.94640599363	68
169	31284	5.96640599363	68
169	31426	5.98640599363	68
169	31563	6.00640599363	68
169	31701	6.02640599363	68
169	31843	6.04640599363	68
169	31980	6.06640599363	68
169	32118	6.08640599363	68
169	32260	6.10640599363	68
169	49723	8.777591859979	68
169	49859	8.797591859979	68
169	49999	8.817591859979	68
169	50139	8.837591859979	68
169	50275	8.857591859979	68
169	50415	8.877591859979	68
169	50555	8.897591859979	68
169	50691	8.917591859979	68
169	50831	8.937591859979	68
169	50971	8.957591859979	68
169	51107	8.977591859979	68
169	51247	8.997591859979	68
169	51388	9.017591859979	68
169	52083	9.122899899328	68
169	52225	9.142899899328	68
169	52361	9.162899899328	68
169	52499	9.182899899328	68
169	52641	9.202899899328	68
169	52777	9.222899899328	68
169	52915	9.242899899328	68
169	53057	9.262899899328	68
169	53193	9.282899899328	68
169	53331	9.302899899328	68
169	53473	9.322899899328	68
169	53609	9.342899899328	68
169	53747	9.362899899328	68
169	53889	9.382899899328	68
169	54025	9.402899899328	68
169	54163	9.422899899328	68
169	54305	9.442899899328	68
169	54441	9.462899899328	68
169	54579	9.482899899328	68
169	54721	9.502899899328	68
169	54857	9.522899899328	68
169	54995	9.542899899328	68
169	55137	9.562899899328	68
169	55273	9.582899899328	68
169	55411	9.602899899328	68
169	55553	9.622899899328	68
169	55689	9.642899899328	68
169	55827	9.662899899328	68
169	55969	9.682899899328	68
169	56105	9.702899899328	68
169	56243	9.722899899328	68
169	56385	9.742899899328	68
169	56521	9.762899899328	68
169	56659	9.782899899328	68
169	56801	9.802899899328	68
169	56937	9.822899899328	68
169	57075	9.842899899328	68
169	57217	9.862899899328	68
169	57353	9.882899899328	68
169	57491	9.902899899328	68
169	57633	9.922899899328	68
169	57769	9.942899899328	68
169	57907	9.962899899328	68
169	58049	9.982899899328	68
169	58186	10.002899899328	68
169	58324	10.022899899328	68
169	58466	10.042899899328	68
169	58603	10.062899899328	68
169	58741	10.082899899328	68
169	58883	10.102899899328	68
169	59019	10.122899899328	68
169	59157	10.142899899328	68
169	59299	10.162899899328	68
169	59435	10.182899899328	68
169	59573	10.202899899328	68
169	59715	10.222899899328	68
169	59851	10.242899899328	68
169	59989	10.262899899328	68
169	60131	10.282899899328	68
169	60267	10.302899899328	68
169	60405	10.322899899328	68
169	60547	10.342899899328	68
169	60683	10.362899899328	68
169	60821	10.382899899328	68
169	60963	10.402899899328	68
169	61099	10.422899899328	68
169	61237	10.442899899328	68
169	61379	10.462899899328	68
169	61515	10.482899899328	68
169	61653	10.502899899328	68
169	61795	10.522899899328	68
169	61931	10.542899899328	68
169	62069	10.562899899328	68
169	62211	10.582899899328	68
169	62347	10.602899899328	68
169	62485	10.622899899328	68
169	62627	10.642899899328	68
169	62763	10.662899899328	68
169	62901	10.682899899328	68
169	63043	10.702899899328	68
169	63179	10.722899899328	68
169	63317	10.742899899328	68
169	63459	10.762899899328	68
169	63595	10.782899899328	68
169	63733	10.802899899328	68
169	63875	10.822899899328	68
169	64011	10.842899899328	68
169	64149	10.862899899328	68
169	64291	10.882899899328	68
169	64427	10.902899899328	68
169	64565	10.922899899328	68
169	64707	10.942899899328	68
169	64843	10.962899899328	68
169	64981	10.982899899328	68
169	65124	11.002899899328	68
169	65260	11.022899899328	68
169	65398	11.042899899328	68
169	65541	11.062899899328	68
169	65677	11.082899899328	68
169	65815	11.102899899328	68
169	65957	11.122899899328	68
169	66093	11.142899899328	68
169	66231	11.162899899328	68
169	66373	11.182899899328	68
169	66509	11.202899899328	68
169	66647	11.222899899328	68
169	66789	11.242899899328	68
169	66925	11.262899899328	68
169	67063	11.282899899328	68
169	67205	11.302899899328	68
169	67341	11.322899899328	68
169	67479	11.342899899328	68
169	67621	11.362899899328	68
169	67757	11.382899899328	68
169	67895	11.402899899328	68
169	68037	11.422899899328	68
169	68173	11.442899899328	68
169	68311	11.462899899328	68
169	68453	11.482899899328	68
169	68589	11.502899899328	68
169	68727	11.522899899328	68
169	68869	11.542899899328	68
169	69005	11.562899899328	68
169	69143	11.582899899328	68
169	69285	11.602899899328	68
169	69421	11.622899899328	68
169	69559	11.642899899328	68
169	69701	11.662899899328	68
169	69837	11.682899899328	68
169	69975	11.702899899328	68
169	70117	11.722899899328	68
169	70253	11.742899899328	68
169	70391	11.762899899328	68
169	70533	11.782899899328	68
169	70669	11.802899899328	68
169	70807	11.822899899328	68
169	70949	11.842899899328	68
169	71085	11.862899899328	68
169	71223	11.882899899328	68
169	71365	11.902899899328	68
169	71501	11.922899899328	68
169	71639	11.942899899328	68
169	71781	11.962899899328	68
169	71917	11.982899899328	68
169	72056	12.002899899328	68
169	72198	12.022899899328	68
169	72334	12.042899899328	68
169	72473	12.062899899328	68
169	72615	12.082899899328	68
169	72751	12.102899899328	68
169	72889	12.122899899328	68
169	73031	12.142899899328	68
169	73167	12.162899899328	68
169	74679	12.392698085521	68
169	74821	12.412698085521	68
169	76182	12.619873317006	68
169	76322	12.639873317006	68
169	76462	12.659873317006	68
169	76598	12.679873317006	68
169	76738	12.699873317006	68
169	76878	12.719873317006	68
169	77014	12.739873317006	68
169	77154	12.759873317006	68
169	77294	12.779873317006	68
169	77430	12.799873317006	68
169	77570	12.819873317006	68
194	4046	2.002	0
194	4080	2.007	0
194	4112	2.012	0
194	4144	2.017	0
194	4186	2.022	0
194	4220	2.027	0
194	4250	2.032	0
194	4284	2.037	0
194	4324	2.042	0
194	4356	2.047	0
194	4391	2.052	0
194	4425	2.057	0
194	4463	2.062	0
194	4497	2.067	0
194	4529	2.072	0
194	4561	2.077	0
194	4603	2.082	0
194	4637	2.087	0
194	4667	2.092	0
194	4701	2.097	0
194	4741	2.102	0
194	4773	2.107	0
194	4807	2.112	0
194	4841	2.117	0
194	4879	2.122	0
194	4913	2.127	0
194	4945	2.132	0
194	4977	2.137	0
194	5019	2.142	0
194	5053	2.147	0
194	5083	2.152	0
194	5117	2.157	0
194	5157	2.162	0
194	5189	2.167	0
194	5223	2.172	0
194	5257	2.177	0
194	5295	2.182	0
194	5329	2.187	0
194	5361	2.192	0
194	5393	2.197	0
194	5435	2.202	0
194	5469	2.207	0
194	5499	2.212	0
194	5533	2.217	0
194	5573	2.222	0
194	5605	2.227	0
194	5639	2.232	0
194	5673	2.237	0
194	5711	2.242	0
194	5745	2.247	0
194	5777	2.252	0
194	5809	2.257	0
194	5851	2.262	0
194	5885	2.267	0
194	5915	2.272	0
194	5949	2.277	0
194	5989	2.282	0
194	6021	2.287	0
194	6055	2.292	0
194	6089	2.297	0
194	6127	2.302	0
194	6161	2.307	0
194	6193	2.312	0
194	6225	2.317	0
194	6267	2.322	0
194	6301	2.327	0
194	6331	2.332	0
194	6366	2.337	0
194	6398	2.342	0
194	6430	2.347	0
194	6464	2.352	0
194	6498	2.357	0
194	6528	2.362	0
194	6562	2.367	0
194	6594	2.372	0
194	6626	2.377	0
194	6660	2.382	0
194	6694	2.387	0
194	6724	2.392	0
194	6758	2.397	0
194	6790	2.402	0
194	6822	2.407	0
194	6856	2.412	0
194	6890	2.417	0
194	6920	2.422	0
194	6954	2.427	0
194	6986	2.432	0
194	7018	2.437	0
194	7052	2.442	0
194	7086	2.447	0
194	7116	2.452	0
194	7150	2.457	0
194	7182	2.462	0
194	7214	2.467	0
194	7248	2.472	0
194	7282	2.477	0
194	7312	2.482	0
194	7346	2.487	0
194	7378	2.492	0
194	7410	2.497	0
194	7444	2.502	0
194	7478	2.507	0
194	7508	2.512	0
194	7542	2.517	0
194	7574	2.522	0
194	7606	2.527	0
194	7640	2.532	0
194	7674	2.537	0
194	7704	2.542	0
194	7738	2.547	0
194	7770	2.552	0
194	7802	2.557	0
194	7836	2.562	0
194	7870	2.567	0
194	7900	2.572	0
194	7934	2.577	0
194	7966	2.582	0
194	8007	2.587	0
194	8041	2.592	0
194	8075	2.597	0
194	8105	2.602	0
194	8147	2.607	0
194	8179	2.612	0
194	8211	2.617	0
194	8245	2.622	0
194	8287	2.627	0
194	8317	2.632	0
194	8351	2.637	0
194	8383	2.642	0
194	8423	2.647	0
194	8457	2.652	0
194	8491	2.657	0
194	8521	2.662	0
194	8563	2.667	0
194	8595	2.672	0
194	8627	2.677	0
194	8661	2.682	0
194	8703	2.687	0
194	8733	2.692	0
194	8767	2.697	0
194	8799	2.702	0
194	8839	2.707	0
194	8873	2.712	0
194	8907	2.717	0
194	8937	2.722	0
194	8979	2.727	0
194	9011	2.732	0
194	9043	2.737	0
194	9077	2.742	0
194	9119	2.747	0
194	9149	2.752	0
194	9183	2.757	0
194	9215	2.762	0
194	9255	2.767	0
194	9289	2.772	0
194	9323	2.777	0
194	9353	2.782	0
194	9395	2.787	0
194	9427	2.792	0
194	9459	2.797	0
194	9493	2.802	0
194	9535	2.807	0
194	9565	2.812	0
194	9599	2.817	0
194	9631	2.822	0
194	9671	2.827	0
194	9705	2.832	0
194	9739	2.837	0
194	9769	2.842	0
194	9811	2.847	0
194	9843	2.852	0
194	9875	2.857	0
194	9909	2.862	0
194	9951	2.867	0
194	9981	2.872	0
194	10015	2.877	0
194	10047	2.882	0
194	10087	2.887	0
194	10121	2.892	0
194	10155	2.897	0
194	10185	2.902	0
194	10227	2.907	0
194	10259	2.912	0
194	10291	2.917	0
194	10325	2.922	0
194	10367	2.927	0
194	10397	2.932	0
194	10431	2.937	0
194	10463	2.942	0
194	10503	2.947	0
194	10537	2.952	0
194	10571	2.957	0
194	10601	2.962	0
194	10643	2.967	0
194	10675	2.972	0
194	10707	2.977	0
194	10741	2.982	0
194	10783	2.987	0
194	10813	2.992	0
194	10847	2.997	0
194	10880	3.002	0
194	10920	3.007	0
194	10954	3.012	0
194	10988	3.017	0
194	11018	3.022	0
194	11060	3.027	0
194	11092	3.032	0
194	11124	3.037	0
194	11158	3.042	0
194	11200	3.047	0
194	11231	3.052	0
194	11265	3.057	0
194	11297	3.062	0
194	11337	3.067	0
194	11371	3.072	0
194	11405	3.077	0
194	11435	3.082	0
194	11477	3.087	0
194	11509	3.092	0
194	11541	3.097	0
194	11575	3.102	0
194	11617	3.107	0
194	11647	3.112	0
194	11681	3.117	0
194	11713	3.122	0
194	11753	3.127	0
194	11787	3.132	0
194	11821	3.137	0
194	11851	3.142	0
194	11893	3.147	0
194	11925	3.152	0
194	11957	3.157	0
194	11991	3.162	0
194	12033	3.167	0
194	12063	3.172	0
194	12097	3.177	0
194	12129	3.182	0
194	12169	3.187	0
194	12203	3.192	0
194	12237	3.197	0
194	12267	3.202	0
194	12309	3.207	0
194	12341	3.212	0
194	12373	3.217	0
194	12407	3.222	0
194	12449	3.227	0
194	12479	3.232	0
194	12513	3.237	0
194	12545	3.242	0
194	12585	3.247	0
194	12619	3.252	0
194	12653	3.257	0
194	12683	3.262	0
194	12725	3.267	0
194	12757	3.272	0
194	12789	3.277	0
194	12823	3.282	0
194	12865	3.287	0
194	12895	3.292	0
194	12929	3.297	0
194	12961	3.302	0
194	13001	3.307	0
194	13035	3.312	0
194	13069	3.317	0
194	13099	3.322	0
194	13141	3.327	0
194	13173	3.332	0
194	13205	3.337	0
194	13239	3.342	0
194	13281	3.347	0
194	13311	3.352	0
194	13345	3.357	0
194	13377	3.362	0
194	13417	3.367	0
194	13451	3.372	0
194	13485	3.377	0
194	13515	3.382	0
194	13557	3.387	0
194	13589	3.392	0
194	13621	3.397	0
194	13655	3.402	0
194	13697	3.407	0
194	13727	3.412	0
194	13761	3.417	0
194	13793	3.422	0
194	13833	3.427	0
194	13867	3.432	0
194	13901	3.437	0
194	13931	3.442	0
194	13973	3.447	0
194	14005	3.452	0
194	14037	3.457	0
194	14071	3.462	0
194	14113	3.467	0
194	14143	3.472	0
194	14177	3.477	0
194	14209	3.482	0
194	14249	3.487	0
194	14283	3.492	0
194	14317	3.497	0
194	14347	3.502	0
194	14389	3.507	0
194	14421	3.512	0
194	14453	3.517	0
194	14487	3.522	0
194	14529	3.527	0
194	14559	3.532	0
194	14593	3.537	0
194	14625	3.542	0
194	14665	3.547	0
194	14699	3.552	0
194	14733	3.557	0
194	14763	3.562	0
194	14805	3.567	0
194	14837	3.572	0
194	14869	3.577	0
194	14903	3.582	0
194	14945	3.587	0
194	14975	3.592	0
194	15009	3.597	0
194	15041	3.602	0
194	15081	3.607	0
194	15115	3.612	0
194	15149	3.617	0
194	15179	3.622	0
194	15221	3.627	0
194	15253	3.632	0
194	15285	3.637	0
194	15319	3.642	0
194	15361	3.647	0
194	15391	3.652	0
194	15425	3.657	0
194	15457	3.662	0
194	15497	3.667	0
194	15531	3.672	0
194	15565	3.677	0
194	15595	3.682	0
194	15637	3.687	0
194	15669	3.692	0
194	15701	3.697	0
194	15735	3.702	0
194	15777	3.707	0
194	15807	3.712	0
194	15841	3.717	0
194	15873	3.722	0
194	15913	3.727	0
194	15947	3.732	0
194	15981	3.737	0
194	16011	3.742	0
194	16053	3.747	0
194	16085	3.752	0
194	16117	3.757	0
194	16151	3.762	0
194	16193	3.767	0
194	16223	3.772	0
194	16257	3.777	0
194	16289	3.782	0
194	16329	3.787	0
194	16363	3.792	0
194	16397	3.797	0
194	16427	3.802	0
194	16469	3.807	0
194	16501	3.812	0
194	16533	3.817	0
194	16567	3.822	0
194	16609	3.827	0
194	16639	3.832	0
194	16673	3.837	0
194	16705	3.842	0
194	16745	3.847	0
194	16779	3.852	0
194	16813	3.857	0
194	16843	3.862	0
194	16885	3.867	0
194	16917	3.872	0
194	16949	3.877	0
194	16983	3.882	0
194	17025	3.887	0
194	17055	3.892	0
194	17089	3.897	0
194	17121	3.902	0
194	17161	3.907	0
194	17195	3.912	0
194	17229	3.917	0
194	17259	3.922	0
194	17301	3.927	0
194	17333	3.932	0
194	17365	3.937	0
194	17399	3.942	0
194	17441	3.947	0
194	17471	3.952	0
194	17505	3.957	0
194	17537	3.962	0
194	17577	3.967	0
194	17611	3.972	0
194	17645	3.977	0
194	17675	3.982	0
194	17717	3.987	0
194	17749	3.992	0
194	17781	3.997	0
194	17816	4.002	0
194	17858	4.007	0
194	17888	4.012	0
194	17922	4.017	0
194	17954	4.022	0
194	17994	4.027	0
194	18028	4.032	0
194	18062	4.037	0
194	18092	4.042	0
194	18134	4.047	0
194	18167	4.052	0
194	18199	4.057	0
194	18233	4.062	0
194	18275	4.067	0
194	18305	4.072	0
194	18339	4.077	0
194	18371	4.082	0
194	18411	4.087	0
194	18445	4.092	0
194	18479	4.097	0
194	18509	4.102	0
194	18551	4.107	0
194	18583	4.112	0
194	18615	4.117	0
194	18649	4.122	0
194	18691	4.127	0
194	18721	4.132	0
194	18755	4.137	0
194	18787	4.142	0
194	18827	4.147	0
194	18861	4.152	0
194	18895	4.157	0
194	18925	4.162	0
194	18967	4.167	0
194	18999	4.172	0
194	19031	4.177	0
194	19065	4.182	0
194	19107	4.187	0
194	19137	4.192	0
194	19171	4.197	0
194	19203	4.202	0
194	19243	4.207	0
194	19277	4.212	0
194	19311	4.217	0
194	19341	4.222	0
194	19383	4.227	0
194	19415	4.232	0
194	19447	4.237	0
194	19481	4.242	0
194	19523	4.247	0
194	19553	4.252	0
194	19587	4.257	0
194	19620	4.262	0
194	19652	4.267	0
194	19686	4.272	0
194	19720	4.277	0
194	19750	4.282	0
194	19784	4.287	0
194	19816	4.292	0
194	19848	4.297	0
194	19882	4.302	0
194	19916	4.307	0
194	19946	4.312	0
194	19980	4.317	0
194	20012	4.322	0
194	20044	4.327	0
194	20078	4.332	0
194	20112	4.337	0
194	20142	4.342	0
194	20176	4.347	0
194	20208	4.352	0
194	20240	4.357	0
194	20274	4.362	0
194	20308	4.367	0
194	20338	4.372	0
194	20372	4.377	0
194	20404	4.382	0
194	20436	4.387	0
194	20470	4.392	0
194	20504	4.397	0
194	20534	4.402	0
194	20568	4.407	0
194	20600	4.412	0
194	20632	4.417	0
194	20666	4.422	0
194	20700	4.427	0
194	20730	4.432	0
194	20764	4.437	0
194	20796	4.442	0
194	20828	4.447	0
194	20862	4.452	0
194	20896	4.457	0
194	20926	4.462	0
194	20960	4.467	0
194	20992	4.472	0
194	21024	4.477	0
194	21058	4.482	0
194	21092	4.487	0
194	21122	4.492	0
194	21156	4.497	0
194	21188	4.502	0
194	21220	4.507	0
194	21254	4.512	0
194	21288	4.517	0
194	21318	4.522	0
194	21352	4.527	0
194	21384	4.532	0
194	21416	4.537	0
194	21450	4.542	0
194	21484	4.547	0
194	21514	4.552	0
194	21548	4.557	0
194	21580	4.562	0
194	21612	4.567	0
194	21646	4.572	0
194	21680	4.577	0
194	21710	4.582	0
194	21744	4.587	0
194	21776	4.592	0
194	21808	4.597	0
194	21842	4.602	0
194	21876	4.607	0
194	21906	4.612	0
194	21940	4.617	0
194	21972	4.622	0
194	22004	4.627	0
194	22038	4.632	0
194	22072	4.637	0
194	22102	4.642	0
194	22136	4.647	0
194	22168	4.652	0
194	22200	4.657	0
194	22234	4.662	0
194	22277	4.667	0
194	22307	4.672	0
194	22341	4.677	0
194	22373	4.682	0
194	22413	4.687	0
194	22447	4.692	0
194	22481	4.697	0
194	22511	4.702	0
194	22553	4.707	0
194	22585	4.712	0
194	22617	4.717	0
194	22651	4.722	0
194	22693	4.727	0
194	22723	4.732	0
194	22757	4.737	0
194	22789	4.742	0
194	22829	4.747	0
194	22863	4.752	0
194	22897	4.757	0
194	22927	4.762	0
194	22969	4.767	0
194	23001	4.772	0
194	23033	4.777	0
194	23067	4.782	0
194	23109	4.787	0
194	23139	4.792	0
194	23173	4.797	0
194	23205	4.802	0
194	23245	4.807	0
194	23279	4.812	0
194	23313	4.817	0
194	23343	4.822	0
194	23385	4.827	0
194	23417	4.832	0
194	23449	4.837	0
194	23483	4.842	0
194	23525	4.847	0
194	23555	4.852	0
194	23589	4.857	0
194	23621	4.862	0
194	23661	4.867	0
194	23695	4.872	0
194	23729	4.877	0
194	23759	4.882	0
194	23801	4.887	0
194	23833	4.892	0
194	23865	4.897	0
194	23899	4.902	0
194	23941	4.907	0
194	23971	4.912	0
194	24005	4.917	0
194	24037	4.922	0
194	24077	4.927	0
194	24111	4.932	0
194	24145	4.937	0
194	24175	4.942	0
194	24217	4.947	0
194	24249	4.952	0
194	24281	4.957	0
194	24315	4.962	0
194	24357	4.967	0
194	24387	4.972	0
194	24421	4.977	0
194	24453	4.982	0
194	24493	4.987	0
194	24527	4.992	0
194	24561	4.997	0
194	24592	5.002	0
194	24634	5.007	0
194	24666	5.012	0
194	24698	5.017	0
194	24732	5.022	0
194	24774	5.027	0
194	24804	5.032	0
194	24838	5.037	0
194	24870	5.042	0
194	24910	5.047	0
194	24945	5.052	0
194	24979	5.057	0
194	25009	5.062	0
194	25051	5.067	0
194	25083	5.072	0
194	25115	5.077	0
194	25149	5.082	0
194	25191	5.087	0
194	25221	5.092	0
194	25255	5.097	0
194	25287	5.102	0
194	25327	5.107	0
194	25361	5.112	0
194	25395	5.117	0
194	25425	5.122	0
194	25467	5.127	0
194	25499	5.132	0
194	25531	5.137	0
194	25565	5.142	0
194	25607	5.147	0
194	25637	5.152	0
194	25671	5.157	0
194	25703	5.162	0
194	25743	5.167	0
194	25777	5.172	0
194	25811	5.177	0
194	25841	5.182	0
194	25883	5.187	0
194	25915	5.192	0
194	25947	5.197	0
194	25981	5.202	0
194	26023	5.207	0
194	26053	5.212	0
194	26087	5.217	0
194	26119	5.222	0
194	26159	5.227	0
194	26193	5.232	0
194	26227	5.237	0
194	26257	5.242	0
194	26299	5.247	0
194	26331	5.252	0
194	26363	5.257	0
194	26397	5.262	0
194	26439	5.267	0
194	26469	5.272	0
194	26503	5.277	0
194	26535	5.282	0
194	26575	5.287	0
194	26609	5.292	0
194	26643	5.297	0
194	26673	5.302	0
194	26715	5.307	0
194	26747	5.312	0
194	26779	5.317	0
194	26813	5.322	0
194	26855	5.327	0
194	26885	5.332	0
194	26919	5.337	0
194	26951	5.342	0
194	26991	5.347	0
194	27025	5.352	0
194	27059	5.357	0
194	27089	5.362	0
194	27131	5.367	0
194	27163	5.372	0
194	27195	5.377	0
194	27229	5.382	0
194	27271	5.387	0
194	27301	5.392	0
194	27335	5.397	0
194	27367	5.402	0
194	27407	5.407	0
194	27441	5.412	0
194	27475	5.417	0
194	27505	5.422	0
194	27547	5.427	0
194	27579	5.432	0
194	27611	5.437	0
194	27645	5.442	0
194	27687	5.447	0
194	27717	5.452	0
194	27751	5.457	0
194	27783	5.462	0
194	27823	5.467	0
194	27857	5.472	0
194	27891	5.477	0
194	27921	5.482	0
194	27963	5.487	0
194	27995	5.492	0
194	28027	5.497	0
194	28061	5.502	0
194	28103	5.507	0
194	28133	5.512	0
194	28167	5.517	0
194	28199	5.522	0
194	28239	5.527	0
194	28273	5.532	0
194	28307	5.537	0
194	28337	5.542	0
194	28379	5.547	0
194	28411	5.552	0
194	28443	5.557	0
194	28477	5.562	0
194	28519	5.567	0
194	28549	5.572	0
194	28583	5.577	0
194	28615	5.582	0
194	28655	5.587	0
194	28689	5.592	0
194	28723	5.597	0
194	28753	5.602	0
194	28795	5.607	0
194	28827	5.612	0
194	28859	5.617	0
194	28893	5.622	0
194	28935	5.627	0
194	28965	5.632	0
194	28999	5.637	0
194	29031	5.642	0
194	29071	5.647	0
194	29105	5.652	0
194	29139	5.657	0
194	29169	5.662	0
194	29211	5.667	0
194	29243	5.672	0
194	29275	5.677	0
194	29309	5.682	0
194	29351	5.687	0
194	29381	5.692	0
194	29415	5.697	0
194	29447	5.702	0
194	29487	5.707	0
194	29521	5.712	0
194	29555	5.717	0
194	29585	5.722	0
194	29627	5.727	0
194	29659	5.732	0
194	29691	5.737	0
194	29725	5.742	0
194	29767	5.747	0
194	29797	5.752	0
194	29831	5.757	0
194	29863	5.762	0
194	29903	5.767	0
194	29937	5.772	0
194	29971	5.777	0
194	30001	5.782	0
194	30043	5.787	0
194	30075	5.792	0
194	30107	5.797	0
194	30141	5.802	0
194	30183	5.807	0
194	30213	5.812	0
194	30247	5.817	0
194	30279	5.822	0
194	30319	5.827	0
194	30353	5.832	0
194	30387	5.837	0
194	30417	5.842	0
194	30459	5.847	0
194	30491	5.852	0
194	30523	5.857	0
194	30557	5.862	0
194	30599	5.867	0
194	30629	5.872	0
194	30663	5.877	0
194	30695	5.882	0
194	30735	5.887	0
194	30769	5.892	0
194	30803	5.897	0
194	30833	5.902	0
194	30875	5.907	0
194	30907	5.912	0
194	30939	5.917	0
194	30973	5.922	0
194	31015	5.927	0
194	31045	5.932	0
194	31079	5.937	0
194	31111	5.942	0
194	31151	5.947	0
194	31185	5.952	0
194	31219	5.957	0
194	31249	5.962	0
194	31291	5.967	0
194	31323	5.972	0
194	31355	5.977	0
194	31389	5.982	0
194	31431	5.987	0
194	31461	5.992	0
194	31495	5.997	0
194	31528	6.002	0
194	31568	6.007	0
194	31602	6.012	0
194	31636	6.017	0
194	31666	6.022	0
194	31708	6.027	0
194	31740	6.032	0
194	31772	6.037	0
194	31806	6.042	0
194	31848	6.047	0
194	31879	6.052	0
194	31913	6.057	0
194	31945	6.062	0
194	31985	6.067	0
194	32019	6.072	0
194	32053	6.077	0
194	32083	6.082	0
194	32125	6.087	0
194	32157	6.092	0
194	32189	6.097	0
194	32223	6.102	0
194	32265	6.107	0
194	32296	6.112	0
194	32330	6.117	0
194	32362	6.122	0
194	32394	6.127	0
194	32428	6.132	0
194	32462	6.137	0
194	32492	6.142	0
194	32526	6.147	0
194	32558	6.152	0
194	32590	6.157	0
194	32624	6.162	0
194	32658	6.167	0
194	32688	6.172	0
194	32722	6.177	0
194	32754	6.182	0
194	32786	6.187	0
194	32820	6.192	0
194	32854	6.197	0
194	32884	6.202	0
194	32918	6.207	0
194	32950	6.212	0
194	32982	6.217	0
194	33016	6.222	0
194	33050	6.227	0
194	33080	6.232	0
194	33114	6.237	0
194	33146	6.242	0
194	33178	6.247	0
194	33212	6.252	0
194	33246	6.257	0
194	33276	6.262	0
194	33310	6.267	0
194	33342	6.272	0
194	33374	6.277	0
194	33408	6.282	0
194	33442	6.287	0
194	33472	6.292	0
194	33506	6.297	0
194	33538	6.302	0
194	33570	6.307	0
194	33604	6.312	0
194	33638	6.317	0
194	33668	6.322	0
194	33702	6.327	0
194	33734	6.332	0
194	33766	6.337	0
194	33800	6.342	0
194	33834	6.347	0
194	33864	6.352	0
194	33898	6.357	0
194	33930	6.362	0
194	33962	6.367	0
194	33996	6.372	0
194	34030	6.377	0
194	34060	6.382	0
194	34094	6.387	0
194	34126	6.392	0
194	34158	6.397	0
194	34192	6.402	0
194	34226	6.407	0
194	34256	6.412	0
194	34290	6.417	0
194	34322	6.422	0
194	34354	6.427	0
194	34388	6.432	0
194	34422	6.437	0
194	34452	6.442	0
194	34486	6.447	0
194	34518	6.452	0
194	34550	6.457	0
194	34584	6.462	0
194	34618	6.467	0
194	34648	6.472	0
194	34682	6.477	0
194	34714	6.482	0
194	34746	6.487	0
194	34780	6.492	0
194	34814	6.497	0
194	34844	6.502	0
194	34878	6.507	0
194	34910	6.512	0
194	34942	6.517	0
194	34976	6.522	0
194	35010	6.527	0
194	35040	6.532	0
194	35074	6.537	0
194	35106	6.542	0
194	35138	6.547	0
194	35172	6.552	0
194	35206	6.557	0
194	35236	6.562	0
194	35270	6.567	0
194	35302	6.572	0
194	35334	6.577	0
194	35368	6.582	0
194	35402	6.587	0
194	35432	6.592	0
194	35466	6.597	0
194	35498	6.602	0
194	35530	6.607	0
194	35564	6.612	0
194	35598	6.617	0
194	35628	6.622	0
194	35662	6.627	0
194	35694	6.632	0
194	35726	6.637	0
194	35760	6.642	0
194	35794	6.647	0
194	35824	6.652	0
194	35858	6.657	0
194	35890	6.662	0
194	35922	6.667	0
194	35956	6.672	0
194	35990	6.677	0
194	36020	6.682	0
194	36054	6.687	0
194	36086	6.692	0
194	36118	6.697	0
194	36152	6.702	0
194	36186	6.707	0
194	36216	6.712	0
194	36250	6.717	0
194	36282	6.722	0
194	36314	6.727	0
194	36348	6.732	0
194	36382	6.737	0
194	36412	6.742	0
194	36446	6.747	0
194	36478	6.752	0
194	36510	6.757	0
194	36544	6.762	0
194	36578	6.767	0
194	36608	6.772	0
194	36642	6.777	0
194	36674	6.782	0
194	36706	6.787	0
194	36740	6.792	0
194	36774	6.797	0
194	36804	6.802	0
194	36838	6.807	0
194	36870	6.812	0
194	36902	6.817	0
194	36936	6.822	0
194	36970	6.827	0
194	37000	6.832	0
194	37034	6.837	0
194	37066	6.842	0
194	37098	6.847	0
194	37132	6.852	0
194	37166	6.857	0
194	37196	6.862	0
194	37230	6.867	0
194	37262	6.872	0
194	37294	6.877	0
194	37328	6.882	0
194	37362	6.887	0
194	37392	6.892	0
194	37426	6.897	0
194	37458	6.902	0
194	37490	6.907	0
194	37524	6.912	0
194	37558	6.917	0
194	37588	6.922	0
194	37622	6.927	0
194	37654	6.932	0
194	37686	6.937	0
194	37720	6.942	0
194	37754	6.947	0
194	37784	6.952	0
194	37818	6.957	0
194	37850	6.962	0
194	37882	6.967	0
194	37916	6.972	0
194	37950	6.977	0
194	37980	6.982	0
194	38014	6.987	0
194	38046	6.992	0
194	38078	6.997	0
194	38113	7.002	0
194	38147	7.007	0
194	38177	7.012	0
194	38211	7.017	0
194	38243	7.022	0
194	38275	7.027	0
194	38309	7.032	0
194	38343	7.037	0
194	38373	7.042	0
194	38407	7.047	0
194	38440	7.052	0
194	38472	7.057	0
194	38506	7.062	0
194	38540	7.067	0
194	38570	7.072	0
194	38604	7.077	0
194	38636	7.082	0
194	38668	7.087	0
194	38702	7.092	0
194	38736	7.097	0
194	38766	7.102	0
194	38800	7.107	0
194	38832	7.112	0
194	38864	7.117	0
194	38898	7.122	0
194	38932	7.127	0
194	38962	7.132	0
194	38996	7.137	0
194	39028	7.142	0
194	39060	7.147	0
194	39094	7.152	0
194	39128	7.157	0
194	39158	7.162	0
194	39192	7.167	0
194	39224	7.172	0
194	39256	7.177	0
194	39290	7.182	0
194	39324	7.187	0
194	39354	7.192	0
194	39388	7.197	0
194	39420	7.202	0
194	39452	7.207	0
194	39486	7.212	0
194	39520	7.217	0
194	39550	7.222	0
194	39584	7.227	0
194	39616	7.232	0
194	39648	7.237	0
194	39682	7.242	0
194	39716	7.247	0
194	39746	7.252	0
194	39780	7.257	0
194	39812	7.262	0
194	39844	7.267	0
194	39878	7.272	0
194	39912	7.277	0
194	39942	7.282	0
194	39976	7.287	0
194	40008	7.292	0
194	40040	7.297	0
194	40074	7.302	0
194	40108	7.307	0
194	40138	7.312	0
194	40172	7.317	0
194	40204	7.322	0
194	40236	7.327	0
194	40270	7.332	0
194	40304	7.337	0
194	40334	7.342	0
194	40368	7.347	0
194	40400	7.352	0
194	40432	7.357	0
194	40466	7.362	0
194	40500	7.367	0
194	40530	7.372	0
194	40564	7.377	0
194	40596	7.382	0
194	40628	7.387	0
194	40662	7.392	0
194	40696	7.397	0
194	40726	7.402	0
194	40760	7.407	0
194	40792	7.412	0
194	40824	7.417	0
194	40858	7.422	0
194	40892	7.427	0
194	40922	7.432	0
194	40956	7.437	0
194	40988	7.442	0
194	41020	7.447	0
194	41054	7.452	0
194	41088	7.457	0
194	41118	7.462	0
194	41152	7.467	0
194	41184	7.472	0
194	41216	7.477	0
194	41250	7.482	0
194	41284	7.487	0
194	41314	7.492	0
194	41348	7.497	0
194	41380	7.502	0
194	41412	7.507	0
194	41446	7.512	0
194	41480	7.517	0
194	41510	7.522	0
194	41544	7.527	0
194	41576	7.532	0
194	41608	7.537	0
194	41642	7.542	0
194	41676	7.547	0
194	41706	7.552	0
194	41740	7.557	0
194	41772	7.562	0
194	41804	7.567	0
194	41838	7.572	0
194	41872	7.577	0
194	41902	7.582	0
194	41936	7.587	0
194	41968	7.592	0
194	42000	7.597	0
194	42034	7.602	0
194	42068	7.607	0
194	42098	7.612	0
194	42132	7.617	0
194	42164	7.622	0
194	42196	7.627	0
194	42230	7.632	0
194	42264	7.637	0
194	42294	7.642	0
194	42328	7.647	0
194	42360	7.652	0
194	42392	7.657	0
194	42426	7.662	0
194	42460	7.667	0
194	42490	7.672	0
194	42524	7.677	0
194	42556	7.682	0
194	42588	7.687	0
194	42622	7.692	0
194	42656	7.697	0
194	42686	7.702	0
194	42720	7.707	0
194	42752	7.712	0
194	42784	7.717	0
194	42818	7.722	0
194	42852	7.727	0
194	42882	7.732	0
194	42916	7.737	0
194	42948	7.742	0
194	42980	7.747	0
194	43014	7.752	0
194	43048	7.757	0
194	43078	7.762	0
194	43112	7.767	0
194	43144	7.772	0
194	43176	7.777	0
194	43210	7.782	0
194	43244	7.787	0
194	43274	7.792	0
194	43308	7.797	0
194	43340	7.802	0
194	43372	7.807	0
194	43406	7.812	0
194	43440	7.817	0
194	43470	7.822	0
194	43504	7.827	0
194	43536	7.832	0
194	43568	7.837	0
194	43602	7.842	0
194	43636	7.847	0
194	43666	7.852	0
194	43700	7.857	0
194	43732	7.862	0
194	43764	7.867	0
194	43798	7.872	0
194	43832	7.877	0
194	43862	7.882	0
194	43896	7.887	0
194	43928	7.892	0
194	43960	7.897	0
194	43994	7.902	0
194	44028	7.907	0
194	44058	7.912	0
194	44092	7.917	0
194	44124	7.922	0
194	44156	7.927	0
194	44190	7.932	0
194	44224	7.937	0
194	44254	7.942	0
194	44288	7.947	0
194	44320	7.952	0
194	44352	7.957	0
194	44386	7.962	0
194	44420	7.967	0
194	44450	7.972	0
194	44484	7.977	0
194	44516	7.982	0
194	44548	7.987	0
194	44582	7.992	0
194	44616	7.997	0
194	44647	8.002	0
194	44681	8.007	0
194	44713	8.012	0
194	44745	8.017	0
194	44779	8.022	0
194	44813	8.027	0
194	44843	8.032	0
194	44877	8.037	0
194	44909	8.042	0
194	44941	8.047	0
194	44976	8.052	0
194	45010	8.057	0
194	45040	8.062	0
194	45074	8.067	0
194	45106	8.072	0
194	45138	8.077	0
194	45172	8.082	0
194	45206	8.087	0
194	45236	8.092	0
194	45270	8.097	0
194	45302	8.102	0
194	45334	8.107	0
194	45368	8.112	0
194	45402	8.117	0
194	45432	8.122	0
194	45466	8.127	0
194	45498	8.132	0
194	45530	8.137	0
194	45564	8.142	0
194	45598	8.147	0
194	45628	8.152	0
194	45662	8.157	0
194	45694	8.162	0
194	45726	8.167	0
194	45760	8.172	0
194	45794	8.177	0
194	45824	8.182	0
194	45858	8.187	0
194	45890	8.192	0
194	45922	8.197	0
194	45956	8.202	0
194	45990	8.207	0
194	46020	8.212	0
194	46054	8.217	0
194	46086	8.222	0
194	46118	8.227	0
194	46152	8.232	0
194	46186	8.237	0
194	46216	8.242	0
194	46250	8.247	0
194	46282	8.252	0
194	46314	8.257	0
194	46348	8.262	0
194	46382	8.267	0
194	46412	8.272	0
194	46446	8.277	0
194	46478	8.282	0
194	46510	8.287	0
194	46544	8.292	0
194	46578	8.297	0
194	46608	8.302	0
194	46642	8.307	0
194	46674	8.312	0
194	46706	8.317	0
194	46740	8.322	0
194	46774	8.327	0
194	46804	8.332	0
194	46838	8.337	0
194	46870	8.342	0
194	46902	8.347	0
194	46936	8.352	0
194	46970	8.357	0
194	47000	8.362	0
194	47034	8.367	0
194	47066	8.372	0
194	47098	8.377	0
194	47132	8.382	0
194	47166	8.387	0
194	47196	8.392	0
194	47230	8.397	0
194	47262	8.402	0
194	47294	8.407	0
194	47328	8.412	0
194	47362	8.417	0
194	47392	8.422	0
194	47426	8.427	0
194	47458	8.432	0
194	47490	8.437	0
194	47524	8.442	0
194	47558	8.447	0
194	47588	8.452	0
194	47622	8.457	0
194	47654	8.462	0
194	47686	8.467	0
194	47720	8.472	0
194	47754	8.477	0
194	47784	8.482	0
194	47818	8.487	0
194	47850	8.492	0
194	47882	8.497	0
194	47916	8.502	0
194	47950	8.507	0
194	47980	8.512	0
194	48014	8.517	0
194	48046	8.522	0
194	48078	8.527	0
194	48112	8.532	0
194	48146	8.537	0
194	48176	8.542	0
194	48210	8.547	0
194	48242	8.552	0
194	48274	8.557	0
194	48308	8.562	0
194	48342	8.567	0
194	48372	8.572	0
194	48406	8.577	0
194	48438	8.582	0
194	48470	8.587	0
194	48504	8.592	0
194	48538	8.597	0
194	48568	8.602	0
194	48602	8.607	0
194	48634	8.612	0
194	48666	8.617	0
194	48700	8.622	0
194	48734	8.627	0
194	48764	8.632	0
194	48798	8.637	0
194	48830	8.642	0
194	48862	8.647	0
194	48896	8.652	0
194	48930	8.657	0
194	48960	8.662	0
194	48994	8.667	0
194	49026	8.672	0
194	49058	8.677	0
194	49092	8.682	0
194	49126	8.687	0
194	49156	8.692	0
194	49190	8.697	0
194	49222	8.702	0
194	49254	8.707	0
194	49288	8.712	0
194	49322	8.717	0
194	49352	8.722	0
194	49386	8.727	0
194	49418	8.732	0
194	49450	8.737	0
194	49484	8.742	0
194	49518	8.747	0
194	49548	8.752	0
194	49582	8.757	0
194	49614	8.762	0
194	49646	8.767	0
194	49680	8.772	0
194	49714	8.777	0
194	49753	8.782	0
194	49787	8.787	0
194	49819	8.792	0
194	49851	8.797	0
194	49893	8.802	0
194	49927	8.807	0
194	49957	8.812	0
194	49991	8.817	0
194	50031	8.822	0
194	50063	8.827	0
194	50097	8.832	0
194	50131	8.837	0
194	50169	8.842	0
194	50203	8.847	0
194	50235	8.852	0
194	50267	8.857	0
194	50309	8.862	0
194	50343	8.867	0
194	50373	8.872	0
194	50407	8.877	0
194	50447	8.882	0
194	50479	8.887	0
194	50513	8.892	0
194	50547	8.897	0
194	50585	8.902	0
194	50619	8.907	0
194	50651	8.912	0
194	50683	8.917	0
194	50725	8.922	0
194	50759	8.927	0
194	50789	8.932	0
194	50823	8.937	0
194	50863	8.942	0
194	50895	8.947	0
194	50929	8.952	0
194	50963	8.957	0
194	51001	8.962	0
194	51035	8.967	0
194	51067	8.972	0
194	51099	8.977	0
194	51141	8.982	0
194	51175	8.987	0
194	51205	8.992	0
194	51239	8.997	0
194	51280	9.002	0
194	51312	9.007	0
194	51346	9.012	0
194	51380	9.017	0
194	51418	9.022	0
194	51452	9.027	0
194	51485	9.032	0
194	51517	9.037	0
194	51551	9.042	0
194	51585	9.047	0
194	51616	9.052	0
194	51650	9.057	0
194	51682	9.062	0
194	51714	9.067	0
194	51748	9.072	0
194	51782	9.077	0
194	51812	9.082	0
194	51846	9.087	0
194	51878	9.092	0
194	51910	9.097	0
194	51944	9.102	0
194	51978	9.107	0
194	52008	9.112	0
194	52042	9.117	0
194	52074	9.122	0
194	52115	9.127	0
194	52149	9.132	0
194	52183	9.137	0
194	52213	9.142	0
194	52255	9.147	0
194	52287	9.152	0
194	52319	9.157	0
194	52353	9.162	0
194	52395	9.167	0
194	52425	9.172	0
194	52459	9.177	0
194	52491	9.182	0
194	52531	9.187	0
194	52565	9.192	0
194	52599	9.197	0
194	52629	9.202	0
194	52671	9.207	0
194	52703	9.212	0
194	52735	9.217	0
194	52769	9.222	0
194	52811	9.227	0
194	52841	9.232	0
194	52875	9.237	0
194	52907	9.242	0
194	52947	9.247	0
194	52981	9.252	0
194	53015	9.257	0
194	53045	9.262	0
194	53087	9.267	0
194	53119	9.272	0
194	53151	9.277	0
194	53185	9.282	0
194	53227	9.287	0
194	53257	9.292	0
194	53291	9.297	0
194	53323	9.302	0
194	53363	9.307	0
194	53397	9.312	0
194	53431	9.317	0
194	53461	9.322	0
194	53503	9.327	0
194	53535	9.332	0
194	53567	9.337	0
194	53601	9.342	0
194	53643	9.347	0
194	53673	9.352	0
194	53707	9.357	0
194	53739	9.362	0
194	53779	9.367	0
194	53813	9.372	0
194	53847	9.377	0
194	53877	9.382	0
194	53919	9.387	0
194	53951	9.392	0
194	53983	9.397	0
194	54017	9.402	0
194	54059	9.407	0
194	54089	9.412	0
194	54123	9.417	0
194	54155	9.422	0
194	54195	9.427	0
194	54229	9.432	0
194	54263	9.437	0
194	54293	9.442	0
194	54335	9.447	0
194	54367	9.452	0
194	54399	9.457	0
194	54433	9.462	0
194	54475	9.467	0
194	54505	9.472	0
194	54539	9.477	0
194	54571	9.482	0
194	54611	9.487	0
194	54645	9.492	0
194	54679	9.497	0
194	54709	9.502	0
194	54751	9.507	0
194	54783	9.512	0
194	54815	9.517	0
194	54849	9.522	0
194	54891	9.527	0
194	54921	9.532	0
194	54955	9.537	0
194	54987	9.542	0
194	55027	9.547	0
194	55061	9.552	0
194	55095	9.557	0
194	55125	9.562	0
194	55167	9.567	0
194	55199	9.572	0
194	55231	9.577	0
194	55265	9.582	0
194	55307	9.587	0
194	55337	9.592	0
194	55371	9.597	0
194	55403	9.602	0
194	55443	9.607	0
194	55477	9.612	0
194	55511	9.617	0
194	55541	9.622	0
194	55583	9.627	0
194	55615	9.632	0
194	55647	9.637	0
194	55681	9.642	0
194	55723	9.647	0
194	55753	9.652	0
194	55787	9.657	0
194	55819	9.662	0
194	55859	9.667	0
194	55893	9.672	0
194	55927	9.677	0
194	55957	9.682	0
194	55999	9.687	0
194	56031	9.692	0
194	56063	9.697	0
194	56097	9.702	0
194	56139	9.707	0
194	56169	9.712	0
194	56203	9.717	0
194	56235	9.722	0
194	56275	9.727	0
194	56309	9.732	0
194	56343	9.737	0
194	56373	9.742	0
194	56415	9.747	0
194	56447	9.752	0
194	56479	9.757	0
194	56513	9.762	0
194	56555	9.767	0
194	56585	9.772	0
194	56619	9.777	0
194	56651	9.782	0
194	56691	9.787	0
194	56725	9.792	0
194	56759	9.797	0
194	56789	9.802	0
194	56831	9.807	0
194	56863	9.812	0
194	56895	9.817	0
194	56929	9.822	0
194	56971	9.827	0
194	57001	9.832	0
194	57035	9.837	0
194	57067	9.842	0
194	57107	9.847	0
194	57141	9.852	0
194	57175	9.857	0
194	57205	9.862	0
194	57247	9.867	0
194	57279	9.872	0
194	57311	9.877	0
194	57345	9.882	0
194	57387	9.887	0
194	57417	9.892	0
194	57451	9.897	0
194	57483	9.902	0
194	57523	9.907	0
194	57557	9.912	0
194	57591	9.917	0
194	57621	9.922	0
194	57663	9.927	0
194	57695	9.932	0
194	57727	9.937	0
194	57761	9.942	0
194	57803	9.947	0
194	57833	9.952	0
194	57867	9.957	0
194	57899	9.962	0
194	57939	9.967	0
194	57973	9.972	0
194	58007	9.977	0
194	58037	9.982	0
194	58079	9.987	0
194	58111	9.992	0
194	58143	9.997	0
194	58178	10.002	0
194	58220	10.007	0
194	58250	10.012	0
194	58284	10.017	0
194	58316	10.022	0
194	58356	10.027	0
194	58390	10.032	0
194	58424	10.037	0
194	58454	10.042	0
194	58496	10.047	0
194	58529	10.052	0
194	58561	10.057	0
194	58595	10.062	0
194	58637	10.067	0
194	58667	10.072	0
194	58701	10.077	0
194	58733	10.082	0
194	58773	10.087	0
194	58807	10.092	0
194	58841	10.097	0
194	58871	10.102	0
194	58913	10.107	0
194	58945	10.112	0
194	58977	10.117	0
194	59011	10.122	0
194	59053	10.127	0
194	59083	10.132	0
194	59117	10.137	0
194	59149	10.142	0
194	59189	10.147	0
194	59223	10.152	0
194	59257	10.157	0
194	59287	10.162	0
194	59329	10.167	0
194	59361	10.172	0
194	59393	10.177	0
194	59427	10.182	0
194	59469	10.187	0
194	59499	10.192	0
194	59533	10.197	0
194	59565	10.202	0
194	59605	10.207	0
194	59639	10.212	0
194	59673	10.217	0
194	59703	10.222	0
194	59745	10.227	0
194	59777	10.232	0
194	59809	10.237	0
194	59843	10.242	0
194	59885	10.247	0
194	59915	10.252	0
194	59949	10.257	0
194	59981	10.262	0
194	60021	10.267	0
194	60055	10.272	0
194	60089	10.277	0
194	60119	10.282	0
194	60161	10.287	0
194	60193	10.292	0
194	60225	10.297	0
194	60259	10.302	0
194	60301	10.307	0
194	60331	10.312	0
194	60365	10.317	0
194	60397	10.322	0
194	60437	10.327	0
194	60471	10.332	0
194	60505	10.337	0
194	60535	10.342	0
194	60577	10.347	0
194	60609	10.352	0
194	60641	10.357	0
194	60675	10.362	0
194	60717	10.367	0
194	60747	10.372	0
194	60781	10.377	0
194	60813	10.382	0
194	60853	10.387	0
194	60887	10.392	0
194	60921	10.397	0
194	60951	10.402	0
194	60993	10.407	0
194	61025	10.412	0
194	61057	10.417	0
194	61091	10.422	0
194	61133	10.427	0
194	61163	10.432	0
194	61197	10.437	0
194	61229	10.442	0
194	61269	10.447	0
194	61303	10.452	0
194	61337	10.457	0
194	61367	10.462	0
194	61409	10.467	0
194	61441	10.472	0
194	61473	10.477	0
194	61507	10.482	0
194	61549	10.487	0
194	61579	10.492	0
194	61613	10.497	0
194	61645	10.502	0
194	61685	10.507	0
194	61719	10.512	0
194	61753	10.517	0
194	61783	10.522	0
194	61825	10.527	0
194	61857	10.532	0
194	61889	10.537	0
194	61923	10.542	0
194	61965	10.547	0
194	61995	10.552	0
194	62029	10.557	0
194	62061	10.562	0
194	62101	10.567	0
194	62135	10.572	0
194	62169	10.577	0
194	62199	10.582	0
194	62241	10.587	0
194	62273	10.592	0
194	62305	10.597	0
194	62339	10.602	0
194	62381	10.607	0
194	62411	10.612	0
194	62445	10.617	0
194	62477	10.622	0
194	62517	10.627	0
194	62551	10.632	0
194	62585	10.637	0
194	62615	10.642	0
194	62657	10.647	0
194	62689	10.652	0
194	62721	10.657	0
194	62755	10.662	0
194	62797	10.667	0
194	62827	10.672	0
194	62861	10.677	0
194	62893	10.682	0
194	62933	10.687	0
194	62967	10.692	0
194	63001	10.697	0
194	63031	10.702	0
194	63073	10.707	0
194	63105	10.712	0
194	63137	10.717	0
194	63171	10.722	0
194	63213	10.727	0
194	63243	10.732	0
194	63277	10.737	0
194	63309	10.742	0
194	63349	10.747	0
194	63383	10.752	0
194	63417	10.757	0
194	63447	10.762	0
194	63489	10.767	0
194	63521	10.772	0
194	63553	10.777	0
194	63587	10.782	0
194	63629	10.787	0
194	63659	10.792	0
194	63693	10.797	0
194	63725	10.802	0
194	63765	10.807	0
194	63799	10.812	0
194	63833	10.817	0
194	63863	10.822	0
194	63905	10.827	0
194	63937	10.832	0
194	63969	10.837	0
194	64003	10.842	0
194	64045	10.847	0
194	64075	10.852	0
194	64109	10.857	0
194	64141	10.862	0
194	64181	10.867	0
194	64215	10.872	0
194	64249	10.877	0
194	64279	10.882	0
194	64321	10.887	0
194	64353	10.892	0
194	64385	10.897	0
194	64419	10.902	0
194	64461	10.907	0
194	64491	10.912	0
194	64525	10.917	0
194	64557	10.922	0
194	64597	10.927	0
194	64631	10.932	0
194	64665	10.937	0
194	64695	10.942	0
194	64737	10.947	0
194	64769	10.952	0
194	64801	10.957	0
194	64835	10.962	0
194	64877	10.967	0
194	64907	10.972	0
194	64941	10.977	0
194	64973	10.982	0
194	65013	10.987	0
194	65047	10.992	0
194	65081	10.997	0
194	65112	11.002	0
194	65154	11.007	0
194	65186	11.012	0
194	65218	11.017	0
194	65252	11.022	0
194	65294	11.027	0
194	65324	11.032	0
194	65358	11.037	0
194	65390	11.042	0
194	65430	11.047	0
194	65465	11.052	0
194	65499	11.057	0
194	65529	11.062	0
194	65571	11.067	0
194	65603	11.072	0
194	65635	11.077	0
194	65669	11.082	0
194	65711	11.087	0
194	65741	11.092	0
194	65775	11.097	0
194	65807	11.102	0
194	65847	11.107	0
194	65881	11.112	0
194	65915	11.117	0
194	65945	11.122	0
194	65987	11.127	0
194	66019	11.132	0
194	66051	11.137	0
194	66085	11.142	0
194	66127	11.147	0
194	66157	11.152	0
194	66191	11.157	0
194	66223	11.162	0
194	66263	11.167	0
194	66297	11.172	0
194	66331	11.177	0
194	66361	11.182	0
194	66403	11.187	0
194	66435	11.192	0
194	66467	11.197	0
194	66501	11.202	0
194	66543	11.207	0
194	66573	11.212	0
194	66607	11.217	0
194	66639	11.222	0
194	66679	11.227	0
194	66713	11.232	0
194	66747	11.237	0
194	66777	11.242	0
194	66819	11.247	0
194	66851	11.252	0
194	66883	11.257	0
194	66917	11.262	0
194	66959	11.267	0
194	66989	11.272	0
194	67023	11.277	0
194	67055	11.282	0
194	67095	11.287	0
194	67129	11.292	0
194	67163	11.297	0
194	67193	11.302	0
194	67235	11.307	0
194	67267	11.312	0
194	67299	11.317	0
194	67333	11.322	0
194	67375	11.327	0
194	67405	11.332	0
194	67439	11.337	0
194	67471	11.342	0
194	67511	11.347	0
194	67545	11.352	0
194	67579	11.357	0
194	67609	11.362	0
194	67651	11.367	0
194	67683	11.372	0
194	67715	11.377	0
194	67749	11.382	0
194	67791	11.387	0
194	67821	11.392	0
194	67855	11.397	0
194	67887	11.402	0
194	67927	11.407	0
194	67961	11.412	0
194	67995	11.417	0
194	68025	11.422	0
194	68067	11.427	0
194	68099	11.432	0
194	68131	11.437	0
194	68165	11.442	0
194	68207	11.447	0
194	68237	11.452	0
194	68271	11.457	0
194	68303	11.462	0
194	68343	11.467	0
194	68377	11.472	0
194	68411	11.477	0
194	68441	11.482	0
194	68483	11.487	0
194	68515	11.492	0
194	68547	11.497	0
194	68581	11.502	0
194	68623	11.507	0
194	68653	11.512	0
194	68687	11.517	0
194	68719	11.522	0
194	68759	11.527	0
194	68793	11.532	0
194	68827	11.537	0
194	68857	11.542	0
194	68899	11.547	0
194	68931	11.552	0
194	68963	11.557	0
194	68997	11.562	0
194	69039	11.567	0
194	69069	11.572	0
194	69103	11.577	0
194	69135	11.582	0
194	69175	11.587	0
194	69209	11.592	0
194	69243	11.597	0
194	69273	11.602	0
194	69315	11.607	0
194	69347	11.612	0
194	69379	11.617	0
194	69413	11.622	0
194	69455	11.627	0
194	69485	11.632	0
194	69519	11.637	0
194	69551	11.642	0
194	69591	11.647	0
194	69625	11.652	0
194	69659	11.657	0
194	69689	11.662	0
194	69731	11.667	0
194	69763	11.672	0
194	69795	11.677	0
194	69829	11.682	0
194	69871	11.687	0
194	69901	11.692	0
194	69935	11.697	0
194	69967	11.702	0
194	70007	11.707	0
194	70041	11.712	0
194	70075	11.717	0
194	70105	11.722	0
194	70147	11.727	0
194	70179	11.732	0
194	70211	11.737	0
194	70245	11.742	0
194	70287	11.747	0
194	70317	11.752	0
194	70351	11.757	0
194	70383	11.762	0
194	70423	11.767	0
194	70457	11.772	0
194	70491	11.777	0
194	70521	11.782	0
194	70563	11.787	0
194	70595	11.792	0
194	70627	11.797	0
194	70661	11.802	0
194	70703	11.807	0
194	70733	11.812	0
194	70767	11.817	0
194	70799	11.822	0
194	70839	11.827	0
194	70873	11.832	0
194	70907	11.837	0
194	70937	11.842	0
194	70979	11.847	0
194	71011	11.852	0
194	71043	11.857	0
194	71077	11.862	0
194	71119	11.867	0
194	71149	11.872	0
194	71183	11.877	0
194	71215	11.882	0
194	71255	11.887	0
194	71289	11.892	0
194	71323	11.897	0
194	71353	11.902	0
194	71395	11.907	0
194	71427	11.912	0
194	71459	11.917	0
194	71493	11.922	0
194	71535	11.927	0
194	71565	11.932	0
194	71599	11.937	0
194	71631	11.942	0
194	71671	11.947	0
194	71705	11.952	0
194	71739	11.957	0
194	71769	11.962	0
194	71811	11.967	0
194	71843	11.972	0
194	71875	11.977	0
194	71909	11.982	0
194	71951	11.987	0
194	71981	11.992	0
194	72015	11.997	0
194	72048	12.002	0
194	72088	12.007	0
194	72122	12.012	0
194	72156	12.017	0
194	72186	12.022	0
194	72228	12.027	0
194	72260	12.032	0
194	72292	12.037	0
194	72326	12.042	0
194	72368	12.047	0
194	72399	12.052	0
194	72433	12.057	0
194	72465	12.062	0
194	72505	12.067	0
194	72539	12.072	0
194	72573	12.077	0
194	72603	12.082	0
194	72645	12.087	0
194	72677	12.092	0
194	72709	12.097	0
194	72743	12.102	0
194	72785	12.107	0
194	72815	12.112	0
194	72849	12.117	0
194	72881	12.122	0
194	72921	12.127	0
194	72955	12.132	0
194	72989	12.137	0
194	73019	12.142	0
194	73061	12.147	0
194	73093	12.152	0
194	73125	12.157	0
194	73159	12.162	0
194	73201	12.167	0
194	73232	12.172	0
194	73266	12.177	0
194	73298	12.182	0
194	73330	12.187	0
194	73364	12.192	0
194	73398	12.197	0
194	73428	12.202	0
194	73462	12.207	0
194	73494	12.212	0
194	73526	12.217	0
194	73560	12.222	0
194	73594	12.227	0
194	73624	12.232	0
194	73658	12.237	0
194	73690	12.242	0
194	73722	12.247	0
194	73756	12.252	0
194	73790	12.257	0
194	73820	12.262	0
194	73854	12.267	0
194	73886	12.272	0
194	73918	12.277	0
194	73952	12.282	0
194	73986	12.287	0
194	74016	12.292	0
194	74050	12.297	0
194	74082	12.302	0
194	74114	12.307	0
194	74148	12.312	0
194	74182	12.317	0
194	74212	12.322	0
194	74246	12.327	0
194	74278	12.332	0
194	74310	12.337	0
194	74344	12.342	0
194	74378	12.347	0
194	74408	12.352	0
194	74442	12.357	0
194	74474	12.362	0
194	74506	12.367	0
194	74540	12.372	0
194	74574	12.377	0
194	74604	12.382	0
194	74638	12.387	0
194	74670	12.392	0
194	74711	12.397	0
194	74745	12.402	0
194	74779	12.407	0
194	74809	12.412	0
194	74851	12.417	0
194	74883	12.422	0
194	74916	12.427	0
194	74950	12.432	0
194	74984	12.437	0
194	75014	12.442	0
194	75048	12.447	0
194	75080	12.452	0
194	75112	12.457	0
194	75146	12.462	0
194	75180	12.467	0
194	75210	12.472	0
194	75244	12.477	0
194	75276	12.482	0
194	75308	12.487	0
194	75342	12.492	0
194	75376	12.497	0
194	75406	12.502	0
194	75440	12.507	0
194	75472	12.512	0
194	75504	12.517	0
194	75538	12.522	0
194	75572	12.527	0
194	75602	12.532	0
194	75636	12.537	0
194	75668	12.542	0
194	75700	12.547	0
194	75734	12.552	0
194	75768	12.557	0
194	75798	12.562	0
194	75832	12.567	0
194	75864	12.572	0
194	75896	12.577	0
194	75930	12.582	0
194	75964	12.587	0
194	75994	12.592	0
194	76028	12.597	0
194	76060	12.602	0
194	76092	12.607	0
194	76126	12.612	0
194	76160	12.617	0
194	76199	12.622	0
194	76233	12.627	0
194	76265	12.632	0
194	76297	12.637	0
194	76339	12.642	0
194	76373	12.647	0
194	76403	12.652	0
194	76437	12.657	0
194	76477	12.662	0
194	76509	12.667	0
194	76543	12.672	0
194	76577	12.677	0
194	76615	12.682	0
194	76649	12.687	0
194	76681	12.692	0
194	76713	12.697	0
194	76755	12.702	0
194	76789	12.707	0
194	76819	12.712	0
194	76853	12.717	0
194	76893	12.722	0
194	76925	12.727	0
194	76959	12.732	0
194	76993	12.737	0
194	77031	12.742	0
194	77065	12.747	0
194	77097	12.752	0
194	77129	12.757	0
194	77171	12.762	0
194	77205	12.767	0
194	77235	12.772	0
194	77269	12.777	0
194	77309	12.782	0
194	77341	12.787	0
194	77375	12.792	0
194	77409	12.797	0
194	77447	12.802	0
194	77481	12.807	0
194	77513	12.812	0
194	77545	12.817	0
194	77587	12.822	0
194	77621	12.827	0
194	77651	12.832	0
194	77685	12.837	0
192	4066	2.004	0
192	4100	2.009	0
192	4134	2.014	0
192	4164	2.019	0
192	4204	2.024	0
192	4236	2.029	0
192	4270	2.034	0
192	4304	2.039	0
192	4346	2.044	0
192	4376	2.049	0
192	4409	2.054	0
192	4441	2.059	0
192	4483	2.064	0
192	4517	2.069	0
192	4551	2.074	0
192	4581	2.079	0
192	4621	2.084	0
192	4653	2.089	0
192	4687	2.094	0
192	4721	2.099	0
192	4763	2.104	0
192	4793	2.109	0
192	4825	2.114	0
192	4857	2.119	0
192	4899	2.124	0
192	4933	2.129	0
192	4967	2.134	0
192	4997	2.139	0
192	5037	2.144	0
192	5069	2.149	0
192	5103	2.154	0
192	5137	2.159	0
192	5179	2.164	0
192	5209	2.169	0
192	5241	2.174	0
192	5273	2.179	0
192	5315	2.184	0
192	5349	2.189	0
192	5383	2.194	0
192	5413	2.199	0
192	5453	2.204	0
192	5485	2.209	0
192	5519	2.214	0
192	5553	2.219	0
192	5595	2.224	0
192	5625	2.229	0
192	5657	2.234	0
192	5689	2.239	0
192	5731	2.244	0
192	5765	2.249	0
192	5799	2.254	0
192	5829	2.259	0
192	5869	2.264	0
192	5901	2.269	0
192	5935	2.274	0
192	5969	2.279	0
192	6011	2.284	0
192	6041	2.289	0
192	6073	2.294	0
192	6105	2.299	0
192	6147	2.304	0
192	6181	2.309	0
192	6215	2.314	0
192	6245	2.319	0
192	6285	2.324	0
192	6317	2.329	0
192	6352	2.334	0
192	6386	2.339	0
192	6420	2.344	0
192	6450	2.349	0
192	6482	2.354	0
192	6514	2.359	0
192	6548	2.364	0
192	6582	2.369	0
192	6616	2.374	0
192	6646	2.379	0
192	6678	2.384	0
192	6710	2.389	0
192	6744	2.394	0
192	6778	2.399	0
192	6812	2.404	0
192	6842	2.409	0
192	6874	2.414	0
192	6906	2.419	0
192	6940	2.424	0
192	6974	2.429	0
192	7008	2.434	0
192	7038	2.439	0
192	7070	2.444	0
192	7102	2.449	0
192	7136	2.454	0
192	7170	2.459	0
192	7204	2.464	0
192	7234	2.469	0
192	7266	2.474	0
192	7298	2.479	0
192	7332	2.484	0
192	7366	2.489	0
192	7400	2.494	0
192	7430	2.499	0
192	7462	2.504	0
192	7494	2.509	0
192	7528	2.514	0
192	7562	2.519	0
192	7596	2.524	0
192	7626	2.529	0
192	7658	2.534	0
192	7690	2.539	0
192	7724	2.544	0
192	7758	2.549	0
192	7792	2.554	0
192	7822	2.559	0
192	7854	2.564	0
192	7886	2.569	0
192	7920	2.574	0
192	7954	2.579	0
192	7988	2.584	0
192	8027	2.589	0
192	8059	2.594	0
192	8091	2.599	0
192	8125	2.604	0
192	8167	2.609	0
192	8201	2.614	0
192	8231	2.619	0
192	8263	2.624	0
192	8303	2.629	0
192	8337	2.634	0
192	8371	2.639	0
192	8405	2.644	0
192	8443	2.649	0
192	8475	2.654	0
192	8507	2.659	0
192	8541	2.664	0
192	8583	2.669	0
192	8617	2.674	0
192	8647	2.679	0
192	8679	2.684	0
192	8719	2.689	0
192	8753	2.694	0
192	8787	2.699	0
192	8821	2.704	0
192	8859	2.709	0
192	8891	2.714	0
192	8923	2.719	0
192	8957	2.724	0
192	8999	2.729	0
192	9033	2.734	0
192	9063	2.739	0
192	9095	2.744	0
192	9135	2.749	0
192	9169	2.754	0
192	9203	2.759	0
192	9237	2.764	0
192	9275	2.769	0
192	9307	2.774	0
192	9339	2.779	0
192	9373	2.784	0
192	9415	2.789	0
192	9449	2.794	0
192	9479	2.799	0
192	9511	2.804	0
192	9551	2.809	0
192	9585	2.814	0
192	9619	2.819	0
192	9653	2.824	0
192	9691	2.829	0
192	9723	2.834	0
192	9755	2.839	0
192	9789	2.844	0
192	9831	2.849	0
192	9865	2.854	0
192	9895	2.859	0
192	9927	2.864	0
192	9967	2.869	0
192	10001	2.874	0
192	10035	2.879	0
192	10069	2.884	0
192	10107	2.889	0
192	10139	2.894	0
192	10171	2.899	0
192	10205	2.904	0
192	10247	2.909	0
192	10281	2.914	0
192	10311	2.919	0
192	10343	2.924	0
192	10383	2.929	0
192	10417	2.934	0
192	10451	2.939	0
192	10485	2.944	0
192	10523	2.949	0
192	10555	2.954	0
192	10587	2.959	0
192	10621	2.964	0
192	10663	2.969	0
192	10697	2.974	0
192	10727	2.979	0
192	10759	2.984	0
192	10799	2.989	0
192	10833	2.994	0
192	10867	2.999	0
192	10902	3.004	0
192	10940	3.009	0
192	10972	3.014	0
192	11004	3.019	0
192	11038	3.024	0
192	11080	3.029	0
192	11114	3.034	0
192	11144	3.039	0
192	11176	3.044	0
192	11216	3.049	0
192	11251	3.054	0
192	11285	3.059	0
192	11319	3.064	0
192	11357	3.069	0
192	11389	3.074	0
192	11421	3.079	0
[...]
100	41063	7.453	0
100	41097	7.458	0
100	41131	7.463	0
100	41165	7.468	0
100	41195	7.473	0
100	41227	7.478	0
100	41259	7.483	0
100	41293	7.488	0
100	41327	7.493	0
100	41361	7.498	0
100	41391	7.503	0
100	41423	7.508	0
100	41455	7.513	0
100	41489	7.518	0
100	41523	7.523	0
100	41557	7.528	0
100	41587	7.533	0
100	41619	7.538	0
100	41651	7.543	0
100	41685	7.548	0
100	41719	7.553	0
100	41753	7.558	0
100	41783	7.563	0
100	41815	7.568	0
100	41847	7.573	0
100	41881	7.578	0
100	41915	7.583	0
100	41949	7.588	0
100	41979	7.593	0
100	42011	7.598	0
100	42043	7.603	0
100	42077	7.608	0
100	42111	7.613	0
100	42145	7.618	0
100	42175	7.623	0
100	42207	7.628	0
100	42239	7.633	0
100	42273	7.638	0
100	42307	7.643	0
100	42341	7.648	0
100	42371	7.653	0
100	42403	7.658	0
100	42435	7.663	0
100	42469	7.668	0
100	42503	7.673	0
100	42537	7.678	0
100	42567	7.683	0
100	42599	7.688	0
100	42631	7.693	0
100	42665	7.698	0
100	42699	7.703	0
100	42733	7.708	0
100	42763	7.713	0
100	42795	7.718	0
100	42827	7.723	0
100	42861	7.728	0
100	42895	7.733	0
100	42929	7.738	0
100	42959	7.743	0
100	42991	7.748	0
100	43023	7.753	0
100	43057	7.758	0
100	43091	7.763	0
100	43125	7.768	0
100	43155	7.773	0
100	43187	7.778	0
100	43219	7.783	0
100	43253	7.788	0
100	43287	7.793	0
100	43321	7.798	0
100	43351	7.803	0
100	43383	7.808	0
100	43415	7.813	0
100	43449	7.818	0
100	43483	7.823	0
100	43517	7.828	0
100	43547	7.833	0
100	43579	7.838	0
100	43611	7.843	0
100	43645	7.848	0
100	43679	7.853	0
100	43713	7.858	0
100	43743	7.863	0
100	43775	7.868	0
100	43807	7.873	0
100	43841	7.878	0
100	43875	7.883	0
100	43909	7.888	0
100	43939	7.893	0
100	43971	7.898	0
100	44003	7.903	0
100	44037	7.908	0
100	44071	7.913	0
100	44105	7.918	0
100	44135	7.923	0
100	44167	7.928	0
100	44199	7.933	0
100	44233	7.938	0
100	44267	7.943	0
100	44301	7.948	0
100	44331	7.953	0
100	44363	7.958	0
100	44395	7.963	0
100	44429	7.968	0
100	44463	7.973	0
100	44497	7.978	0
100	44527	7.983	0
100	44559	7.988	0
100	44591	7.993	0
100	44625	7.998	0
100	44660	8.003	0
100	44694	8.008	0
100	44724	8.013	0
100	44756	8.018	0
100	44788	8.023	0
100	44822	8.028	0
100	44856	8.033	0
100	44890	8.038	0
100	44920	8.043	0
100	44952	8.048	0
100	44985	8.053	0
100	45019	8.058	0
100	45053	8.063	0
100	45087	8.068	0
100	45117	8.073	0
100	45149	8.078	0
100	45181	8.083	0
100	45215	8.088	0
100	45249	8.093	0
100	45283	8.098	0
100	45313	8.103	0
100	45345	8.108	0
100	45377	8.113	0
100	45411	8.118	0
100	45445	8.123	0
100	45479	8.128	0
100	45509	8.133	0
100	45541	8.138	0
100	45573	8.143	0
100	45607	8.148	0
100	45641	8.153	0
100	45675	8.158	0
100	45705	8.163	0
100	45737	8.168	0
100	45769	8.173	0
100	45803	8.178	0
100	45837	8.183	0
100	45871	8.188	0
100	45901	8.193	0
100	45933	8.198	0
100	45965	8.203	0
100	45999	8.208	0
100	46033	8.213	0
100	46067	8.218	0
100	46097	8.223	0
100	46129	8.228	0
100	46161	8.233	0
100	46195	8.238	0
100	46229	8.243	0
100	46263	8.248	0
100	46293	8.253	0
100	46325	8.258	0
100	46357	8.263	0
100	46391	8.268	0
100	46425	8.273	0
100	46459	8.278	0
100	46489	8.283	0
100	46521	8.288	0
100	46553	8.293	0
100	46587	8.298	0
100	46621	8.303	0
100	46655	8.308	0
100	46685	8.313	0
100	46717	8.318	0
100	46749	8.323	0
100	46783	8.328	0
100	46817	8.333	0
100	46851	8.338	0
100	46881	8.343	0
100	46913	8.348	0
100	46945	8.353	0
100	46979	8.358	0
100	47013	8.363	0
100	47047	8.368	0
100	47077	8.373	0
100	47109	8.378	0
100	47141	8.383	0
100	47175	8.388	0
100	47209	8.393	0
100	47243	8.398	0
100	47273	8.403	0
100	47305	8.408	0
100	47337	8.413	0
100	47371	8.418	0
100	47405	8.423	0
100	47439	8.428	0
100	47469	8.433	0
100	47501	8.438	0
100	47533	8.443	0
100	47567	8.448	0
100	47601	8.453	0
100	47635	8.458	0
100	47665	8.463	0
100	47697	8.468	0
100	47729	8.473	0
100	47763	8.478	0
100	47797	8.483	0
100	47831	8.488	0
100	47861	8.493	0
100	47893	8.498	0
100	47925	8.503	0
100	47959	8.508	0
100	47993	8.513	0
100	48027	8.518	0
100	48057	8.523	0
100	48089	8.528	0
100	48121	8.533	0
100	48155	8.538	0
100	48189	8.543	0
100	48223	8.548	0
100	48253	8.553	0
100	48285	8.558	0
100	48317	8.563	0
100	48351	8.568	0
100	48385	8.573	0
100	48419	8.578	0
100	48449	8.583	0
100	48481	8.588	0
100	48513	8.593	0
100	48547	8.598	0
100	48581	8.603	0
100	48615	8.608	0
100	48645	8.613	0
100	48677	8.618	0
100	48709	8.623	0
100	48743	8.628	0
100	48777	8.633	0
100	48811	8.638	0
100	48841	8.643	0
100	48873	8.648	0
100	48905	8.653	0
100	48939	8.658	0
100	48973	8.663	0
100	49007	8.668	0
100	49037	8.673	0
100	49069	8.678	0
100	49101	8.683	0
100	49135	8.688	0
100	49169	8.693	0
100	49203	8.698	0
100	49233	8.703	0
100	49265	8.708	0
100	49297	8.713	0
100	49331	8.718	0
100	49365	8.723	0
100	49399	8.728	0
100	49429	8.733	0
100	49461	8.738	0
100	49493	8.743	0
100	49527	8.748	0
100	49561	8.753	0
100	49595	8.758	0
100	49625	8.763	0
100	49657	8.768	0
100	49689	8.773	0
100	49732	8.778	0
100	49766	8.783	0
100	49800	8.788	0
100	49830	8.793	0
100	49870	8.798	0
100	49902	8.803	0
100	49936	8.808	0
100	49970	8.813	0
100	50012	8.818	0
100	50042	8.823	0
100	50074	8.828	0
100	50106	8.833	0
100	50148	8.838	0
100	50182	8.843	0
100	50216	8.848	0
100	50246	8.853	0
100	50286	8.858	0
100	50318	8.863	0
100	50352	8.868	0
100	50386	8.873	0
100	50428	8.878	0
100	50458	8.883	0
100	50490	8.888	0
100	50522	8.893	0
100	50564	8.898	0
100	50598	8.903	0
100	50632	8.908	0
100	50662	8.913	0
100	50702	8.918	0
100	50734	8.923	0
100	50768	8.928	0
100	50802	8.933	0
100	50844	8.938	0
100	50874	8.943	0
100	50906	8.948	0
100	50938	8.953	0
100	50980	8.958	0
100	51014	8.963	0
100	51048	8.968	0
100	51078	8.973	0
100	51118	8.978	0
100	51150	8.983	0
100	51184	8.988	0
100	51218	8.993	0
100	51260	8.998	0
100	51291	9.003	0
100	51323	9.008	0
100	51355	9.013	0
100	51397	9.018	0
100	51431	9.023	0
100	51465	9.028	0
100	51496	9.033	0
100	51528	9.038	0
100	51560	9.043	0
100	51594	9.048	0
100	51629	9.053	0
100	51663	9.058	0
100	51693	9.063	0
100	51725	9.068	0
100	51757	9.073	0
100	51791	9.078	0
100	51825	9.083	0
100	51859	9.088	0
100	51889	9.093	0
100	51921	9.098	0
100	51953	9.103	0
100	51987	9.108	0
100	52021	9.113	0
100	52055	9.118	0
100	52094	9.123	0
100	52126	9.128	0
100	52158	9.133	0
100	52192	9.138	0
100	52234	9.143	0
100	52268	9.148	0
100	52298	9.153	0
100	52330	9.158	0
100	52370	9.163	0
100	52404	9.168	0
100	52438	9.173	0
100	52472	9.178	0
100	52510	9.183	0
100	52542	9.188	0
100	52574	9.193	0
100	52608	9.198	0
100	52650	9.203	0
100	52684	9.208	0
100	52714	9.213	0
100	52746	9.218	0
100	52786	9.223	0
100	52820	9.228	0
100	52854	9.233	0
100	52888	9.238	0
100	52926	9.243	0
100	52958	9.248	0
100	52990	9.253	0
100	53024	9.258	0
100	53066	9.263	0
100	53100	9.268	0
100	53130	9.273	0
100	53162	9.278	0
100	53202	9.283	0
100	53236	9.288	0
100	53270	9.293	0
100	53304	9.298	0
100	53342	9.303	0
100	53374	9.308	0
100	53406	9.313	0
100	53440	9.318	0
100	53482	9.323	0
100	53516	9.328	0
100	53546	9.333	0
100	53578	9.338	0
100	53618	9.343	0
100	53652	9.348	0
100	53686	9.353	0
100	53720	9.358	0
100	53758	9.363	0
100	53790	9.368	0
100	53822	9.373	0
100	53856	9.378	0
100	53898	9.383	0
100	53932	9.388	0
100	53962	9.393	0
100	53994	9.398	0
100	54034	9.403	0
100	54068	9.408	0
100	54102	9.413	0
100	54136	9.418	0
100	54174	9.423	0
100	54206	9.428	0
100	54238	9.433	0
100	54272	9.438	0
100	54314	9.443	0
100	54348	9.448	0
100	54378	9.453	0
100	54410	9.458	0
100	54450	9.463	0
100	54484	9.468	0
100	54518	9.473	0
100	54552	9.478	0
100	54590	9.483	0
100	54622	9.488	0
100	54654	9.493	0
100	54688	9.498	0
100	54730	9.503	0
100	54764	9.508	0
100	54794	9.513	0
100	54826	9.518	0
100	54866	9.523	0
100	54900	9.528	0
100	54934	9.533	0
100	54968	9.538	0
100	55006	9.543	0
100	55038	9.548	0
100	55070	9.553	0
100	55104	9.558	0
100	55146	9.563	0
100	55180	9.568	0
100	55210	9.573	0
100	55242	9.578	0
100	55282	9.583	0
100	55316	9.588	0
100	55350	9.593	0
100	55384	9.598	0
100	55422	9.603	0
100	55454	9.608	0
100	55486	9.613	0
100	55520	9.618	0
100	55562	9.623	0
100	55596	9.628	0
100	55626	9.633	0
100	55658	9.638	0
100	55698	9.643	0
100	55732	9.648	0
100	55766	9.653	0
100	55800	9.658	0
100	55838	9.663	0
100	55870	9.668	0
100	55902	9.673	0
100	55936	9.678	0
100	55978	9.683	0
100	56012	9.688	0
100	56042	9.693	0
100	56074	9.698	0
100	56114	9.703	0
100	56148	9.708	0
100	56182	9.713	0
100	56216	9.718	0
100	56254	9.723	0
100	56286	9.728	0
100	56318	9.733	0
100	56352	9.738	0
100	56394	9.743	0
100	56428	9.748	0
100	56458	9.753	0
100	56490	9.758	0
100	56530	9.763	0
100	56564	9.768	0
100	56598	9.773	0
100	56632	9.778	0
100	56670	9.783	0
100	56702	9.788	0
100	56734	9.793	0
100	56768	9.798	0
100	56810	9.803	0
100	56844	9.808	0
100	56874	9.813	0
100	56906	9.818	0
100	56946	9.823	0
100	56980	9.828	0
100	57014	9.833	0
100	57048	9.838	0
100	57086	9.843	0
100	57118	9.848	0
100	57150	9.853	0
100	57184	9.858	0
100	57226	9.863	0
100	57260	9.868	0
100	57290	9.873	0
100	57322	9.878	0
100	57362	9.883	0
100	57396	9.888	0
100	57430	9.893	0
100	57464	9.898	0
100	57502	9.903	0
100	57534	9.908	0
100	57566	9.913	0
100	57600	9.918	0
100	57642	9.923	0
100	57676	9.928	0
100	57706	9.933	0
100	57738	9.938	0
100	57778	9.943	0
100	57812	9.948	0
100	57846	9.953	0
100	57880	9.958	0
100	57918	9.963	0
100	57950	9.968	0
100	57982	9.973	0
100	58016	9.978	0
100	58058	9.983	0
100	58092	9.988	0
100	58122	9.993	0
100	58154	9.998	0
100	58195	10.003	0
100	58229	10.008	0
100	58263	10.013	0
100	58297	10.018	0
100	58335	10.023	0
100	58367	10.028	0
100	58399	10.033	0
100	58433	10.038	0
100	58475	10.043	0
100	58509	10.048	0
100	58540	10.053	0
100	58572	10.058	0
100	58612	10.063	0
100	58646	10.068	0
100	58680	10.073	0
100	58714	10.078	0
100	58752	10.083	0
100	58784	10.088	0
100	58816	10.093	0
100	58850	10.098	0
100	58892	10.103	0
100	58926	10.108	0
100	58956	10.113	0
100	58988	10.118	0
100	59028	10.123	0
100	59062	10.128	0
100	59096	10.133	0
100	59130	10.138	0
100	59168	10.143	0
100	59200	10.148	0
100	59232	10.153	0
100	59266	10.158	0
100	59308	10.163	0
100	59342	10.168	0
100	59372	10.173	0
100	59404	10.178	0
100	59444	10.183	0
100	59478	10.188	0
100	59512	10.193	0
100	59546	10.198	0
100	59584	10.203	0
100	59616	10.208	0
100	59648	10.213	0
100	59682	10.218	0
100	59724	10.223	0
100	59758	10.228	0
100	59788	10.233	0
100	59820	10.238	0
100	59860	10.243	0
100	59894	10.248	0
100	59928	10.253	0
100	59962	10.258	0
100	60000	10.263	0
100	60032	10.268	0
100	60064	10.273	0
100	60098	10.278	0
100	60140	10.283	0
100	60174	10.288	0
100	60204	10.293	0
100	60236	10.298	0
100	60276	10.303	0
100	60310	10.308	0
100	60344	10.313	0
100	60378	10.318	0
100	60416	10.323	0
100	60448	10.328	0
100	60480	10.333	0
100	60514	10.338	0
100	60556	10.343	0
100	60590	10.348	0
100	60620	10.353	0
100	60652	10.358	0
100	60692	10.363	0
100	60726	10.368	0
100	60760	10.373	0
100	60794	10.378	0
100	60832	10.383	0
100	60864	10.388	0
100	60896	10.393	0
100	60930	10.398	0
100	60972	10.403	0
100	61006	10.408	0
100	61036	10.413	0
100	61068	10.418	0
100	61108	10.423	0
100	61142	10.428	0
100	61176	10.433	0
100	61210	10.438	0
100	61248	10.443	0
100	61280	10.448	0
100	61312	10.453	0
100	61346	10.458	0
100	61388	10.463	0
100	61422	10.468	0
100	61452	10.473	0
100	61484	10.478	0
100	61524	10.483	0
100	61558	10.488	0
100	61592	10.493	0
100	61626	10.498	0
100	61664	10.503	0
100	61696	10.508	0
100	61728	10.513	0
100	61762	10.518	0
100	61804	10.523	0
100	61838	10.528	0
100	61868	10.533	0
100	61900	10.538	0
100	61940	10.543	0
100	61974	10.548	0
100	62008	10.553	0
100	62042	10.558	0
100	62080	10.563	0
100	62112	10.568	0
100	62144	10.573	0
100	62178	10.578	0
100	62220	10.583	0
100	62254	10.588	0
100	62284	10.593	0
100	62316	10.598	0
100	62356	10.603	0
100	62390	10.608	0
100	62424	10.613	0
100	62458	10.618	0
100	62496	10.623	0
100	62528	10.628	0
100	62560	10.633	0
100	62594	10.638	0
100	62636	10.643	0
100	62670	10.648	0
100	62700	10.653	0
100	62732	10.658	0
100	62772	10.663	0
100	62806	10.668	0
100	62840	10.673	0
100	62874	10.678	0
100	62912	10.683	0
100	62944	10.688	0
100	62976	10.693	0
100	63010	10.698	0
100	63052	10.703	0
100	63086	10.708	0
100	63116	10.713	0
100	63148	10.718	0
100	63188	10.723	0
100	63222	10.728	0
100	63256	10.733	0
100	63290	10.738	0
100	63328	10.743	0
100	63360	10.748	0
100	63392	10.753	0
100	63426	10.758	0
100	63468	10.763	0
100	63502	10.768	0
100	63532	10.773	0
100	63564	10.778	0
100	63604	10.783	0
100	63638	10.788	0
100	63672	10.793	0
100	63706	10.798	0
100	63744	10.803	0
100	63776	10.808	0
100	63808	10.813	0
100	63842	10.818	0
100	63884	10.823	0
100	63918	10.828	0
100	63948	10.833	0
100	63980	10.838	0
100	64020	10.843	0
100	64054	10.848	0
100	64088	10.853	0
100	64122	10.858	0
100	64160	10.863	0
100	64192	10.868	0
100	64224	10.873	0
100	64258	10.878	0
100	64300	10.883	0
100	64334	10.888	0
100	64364	10.893	0
100	64396	10.898	0
100	64436	10.903	0
100	64470	10.908	0
100	64504	10.913	0
100	64538	10.918	0
100	64576	10.923	0
100	64608	10.928	0
100	64640	10.933	0
100	64674	10.938	0
100	64716	10.943	0
100	64750	10.948	0
100	64780	10.953	0
100	64812	10.958	0
100	64852	10.963	0
100	64886	10.968	0
100	64920	10.973	0
100	64954	10.978	0
100	64992	10.983	0
100	65024	10.988	0
100	65056	10.993	0
100	65090	10.998	0
100	65133	11.003	0
100	65167	11.008	0
100	65197	11.013	0
100	65229	11.018	0
100	65269	11.023	0
100	65303	11.028	0
100	65337	11.033	0
100	65371	11.038	0
100	65409	11.043	0
100	65441	11.048	0
100	65474	11.053	0
100	65508	11.058	0
100	65550	11.063	0
100	65584	11.068	0
100	65614	11.073	0
100	65646	11.078	0
100	65686	11.083	0
100	65720	11.088	0
100	65754	11.093	0
100	65788	11.098	0
100	65826	11.103	0
100	65858	11.108	0
100	65890	11.113	0
100	65924	11.118	0
100	65966	11.123	0
100	66000	11.128	0
100	66030	11.133	0
100	66062	11.138	0
100	66102	11.143	0
100	66136	11.148	0
100	66170	11.153	0
100	66204	11.158	0
100	66242	11.163	0
100	66274	11.168	0
100	66306	11.173	0
100	66340	11.178	0
100	66382	11.183	0
100	66416	11.188	0
100	66446	11.193	0
100	66478	11.198	0
100	66518	11.203	0
100	66552	11.208	0
100	66586	11.213	0
100	66620	11.218	0
100	66658	11.223	0
100	66690	11.228	0
100	66722	11.233	0
100	66756	11.238	0
100	66798	11.243	0
100	66832	11.248	0
100	66862	11.253	0
100	66894	11.258	0
100	66934	11.263	0
100	66968	11.268	0
100	67002	11.273	0
100	67036	11.278	0
100	67074	11.283	0
100	67106	11.288	0
100	67138	11.293	0
100	67172	11.298	0
100	67214	11.303	0
100	67248	11.308	0
100	67278	11.313	0
100	67310	11.318	0
100	67350	11.323	0
100	67384	11.328	0
100	67418	11.333	0
100	67452	11.338	0
100	67490	11.343	0
100	67522	11.348	0
100	67554	11.353	0
100	67588	11.358	0
100	67630	11.363	0
100	67664	11.368	0
100	67694	11.373	0
100	67726	11.378	0
100	67766	11.383	0
100	67800	11.388	0
100	67834	11.393	0
100	67868	11.398	0
100	67906	11.403	0
100	67938	11.408	0
100	67970	11.413	0
100	68004	11.418	0
100	68046	11.423	0
100	68080	11.428	0
100	68110	11.433	0
100	68142	11.438	0
100	68182	11.443	0
100	68216	11.448	0
100	68250	11.453	0
100	68284	11.458	0
100	68322	11.463	0
100	68354	11.468	0
100	68386	11.473	0
100	68420	11.478	0
100	68462	11.483	0
100	68496	11.488	0
100	68526	11.493	0
100	68558	11.498	0
100	68598	11.503	0
100	68632	11.508	0
100	68666	11.513	0
100	68700	11.518	0
100	68738	11.523	0
100	68770	11.528	0
100	68802	11.533	0
100	68836	11.538	0
100	68878	11.543	0
100	68912	11.548	0
100	68942	11.553	0
100	68974	11.558	0
100	69014	11.563	0
100	69048	11.568	0
100	69082	11.573	0
100	69116	11.578	0
100	69154	11.583	0
100	69186	11.588	0
100	69218	11.593	0
100	69252	11.598	0
100	69294	11.603	0
100	69328	11.608	0
100	69358	11.613	0
100	69390	11.618	0
100	69430	11.623	0
100	69464	11.628	0
100	69498	11.633	0
100	69532	11.638	0
100	69570	11.643	0
100	69602	11.648	0
100	69634	11.653	0
100	69668	11.658	0
100	69710	11.663	0
100	69744	11.668	0
100	69774	11.673	0
100	69806	11.678	0
100	69846	11.683	0
100	69880	11.688	0
100	69914	11.693	0
100	69948	11.698	0
100	69986	11.703	0
100	70018	11.708	0
100	70050	11.713	0
100	70084	11.718	0
100	70126	11.723	0
100	70160	11.728	0
100	70190	11.733	0
100	70222	11.738	0
100	70262	11.743	0
100	70296	11.748	0
100	70330	11.753	0
100	70364	11.758	0
100	70402	11.763	0
100	70434	11.768	0
100	70466	11.773	0
100	70500	11.778	0
100	70542	11.783	0
100	70576	11.788	0
100	70606	11.793	0
100	70638	11.798	0
100	70678	11.803	0
100	70712	11.808	0
100	70746	11.813	0
100	70780	11.818	0
100	70818	11.823	0
100	70850	11.828	0
100	70882	11.833	0
100	70916	11.838	0
100	70958	11.843	0
100	70992	11.848	0
100	71022	11.853	0
100	71054	11.858	0
100	71094	11.863	0
100	71128	11.868	0
100	71162	11.873	0
100	71196	11.878	0
100	71234	11.883	0
100	71266	11.888	0
100	71298	11.893	0
100	71332	11.898	0
100	71374	11.903	0
100	71408	11.908	0
100	71438	11.913	0
100	71470	11.918	0
100	71510	11.923	0
100	71544	11.928	0
100	71578	11.933	0
100	71612	11.938	0
100	71650	11.943	0
100	71682	11.948	0
100	71714	11.953	0
100	71748	11.958	0
100	71790	11.963	0
100	71824	11.968	0
100	71854	11.973	0
100	71886	11.978	0
100	71926	11.983	0
100	71960	11.988	0
100	71994	11.993	0
100	72028	11.998	0
100	72067	12.003	0
100	72099	12.008	0
100	72131	12.013	0
100	72165	12.018	0
100	72207	12.023	0
100	72241	12.028	0
100	72271	12.033	0
100	72303	12.038	0
100	72343	12.043	0
100	72377	12.048	0
100	72412	12.053	0
100	72446	12.058	0
100	72484	12.063	0
100	72516	12.068	0
100	72548	12.073	0
100	72582	12.078	0
100	72624	12.083	0
100	72658	12.088	0
100	72688	12.093	0
100	72720	12.098	0
100	72760	12.103	0
100	72794	12.108	0
100	72828	12.113	0
100	72862	12.118	0
100	72900	12.123	0
100	72932	12.128	0
100	72964	12.133	0
100	72998	12.138	0
100	73040	12.143	0
100	73074	12.148	0
100	73104	12.153	0
100	73136	12.158	0
100	73176	12.163	0
100	73210	12.168	0
100	73245	12.173	0
100	73279	12.178	0
100	73309	12.183	0
100	73341	12.188	0
100	73373	12.193	0
100	73407	12.198	0
100	73441	12.203	0
100	73475	12.208	0
100	73505	12.213	0
100	73537	12.218	0
100	73569	12.223	0
100	73603	12.228	0
100	73637	12.233	0
100	73671	12.238	0
100	73701	12.243	0
100	73733	12.248	0
100	73765	12.253	0
100	73799	12.258	0
100	73833	12.263	0
100	73867	12.268	0
100	73897	12.273	0
100	73929	12.278	0
100	73961	12.283	0
100	73995	12.288	0
100	74029	12.293	0
100	74063	12.298	0
100	74093	12.303	0
100	74125	12.308	0
100	74157	12.313	0
100	74191	12.318	0
100	74225	12.323	0
100	74259	12.328	0
100	74289	12.333	0
100	74321	12.338	0
100	74353	12.343	0
100	74387	12.348	0
100	74421	12.353	0
100	74455	12.358	0
100	74485	12.363	0
100	74517	12.368	0
100	74549	12.373	0
100	74583	12.378	0
100	74617	12.383	0
100	74651	12.388	0
100	74690	12.393	0
100	74722	12.398	0
100	74754	12.403	0
100	74788	12.408	0
100	74830	12.413	0
100	74864	12.418	0
100	74895	12.423	0
100	74927	12.428	0
100	74959	12.433	0
100	74993	12.438	0
100	75027	12.443	0
100	75061	12.448	0
100	75091	12.453	0
100	75123	12.458	0
100	75155	12.463	0
100	75189	12.468	0
100	75223	12.473	0
100	75257	12.478	0
100	75287	12.483	0
100	75319	12.488	0
100	75351	12.493	0
100	75385	12.498	0
100	75419	12.503	0
100	75453	12.508	0
100	75483	12.513	0
100	75515	12.518	0
100	75547	12.523	0
100	75581	12.528	0
100	75615	12.533	0
100	75649	12.538	0
100	75679	12.543	0
100	75711	12.548	0
100	75743	12.553	0
100	75777	12.558	0
100	75811	12.563	0
100	75845	12.568	0
100	75875	12.573	0
100	75907	12.578	0
100	75939	12.583	0
100	75973	12.588	0
100	76007	12.593	0
100	76041	12.598	0
100	76071	12.603	0
100	76103	12.608	0
100	76135	12.613	0
100	76169	12.618	0
100	76212	12.623	0
100	76246	12.628	0
100	76276	12.633	0
100	76308	12.638	0
100	76348	12.643	0
100	76382	12.648	0
100	76416	12.653	0
100	76450	12.658	0
100	76488	12.663	0
100	76520	12.668	0
100	76552	12.673	0
100	76586	12.678	0
100	76628	12.683	0
100	76662	12.688	0
100	76692	12.693	0
100	76724	12.698	0
100	76764	12.703	0
100	76798	12.708	0
100	76832	12.713	0
100	76866	12.718	0
100	76904	12.723	0
100	76936	12.728	0
100	76968	12.733	0
100	77002	12.738	0
100	77044	12.743	0
100	77078	12.748	0
100	77108	12.753	0
100	77140	12.758	0
100	77180	12.763	0
100	77214	12.768	0
100	77248	12.773	0
100	77282	12.778	0
100	77320	12.783	0
100	77352	12.788	0
100	77384	12.793	0
100	77418	12.798	0
100	77460	12.803	0
100	77494	12.808	0
100	77524	12.813	0
100	77556	12.818	0
100	77596	12.823	0
100	77630	12.828	0
100	77664	12.833	0
100	77698	12.838	0
105	0	0	0
106	0	0	0
